558221
  -OEChem-09222402113D

 36 36  0     1  0  0  0  0  0999 V2000
    2.3388   -1.0337   -1.3101 O   0  0  0  0  0  0  0  0  0  0  0  0
   -0.1734   -2.2352   -0.1237 C   0  0  2  0  0  0  0  0  0  0  0  0
    1.1900   -2.0220    0.5569 C   0  0  0  0  0  0  0  0  0  0  0  0
   -1.0388   -0.9855   -0.0867 C   0  0  0  0  0  0  0  0  0  0  0  0
   -0.9047   -3.4262    0.5038 C   0  0  0  0  0  0  0  0  0  0  0  0
   -1.4310   -0.4080   -1.2778 C   0  0  0  0  0  0  0  0  0  0  0  0
   -1.4073   -0.4642    1.1375 C   0  0  0  0  0  0  0  0  0  0  0  0
    1.9933   -0.9357   -0.1355 C   0  0  0  0  0  0  0  0  0  0  0  0
   -2.6099    1.2835   -0.0188 C   0  0  0  0  0  0  0  0  0  0  0  0
   -2.2247    0.7385   -1.2435 C   0  0  0  0  0  0  0  0  0  0  0  0
   -2.2012    0.6823    1.1717 C   0  0  0  0  0  0  0  0  0  0  0  0
    2.3496    0.2508    0.6894 C   0  0  0  0  0  0  0  0  0  0  0  0
    2.4768    1.4990    0.2064 C   0  0  0  0  0  0  0  0  0  0  0  0
   -3.4593    2.5088    0.0178 C   0  0  0  0  0  0  0  0  0  0  0  0
    2.8506    2.6269    1.1317 C   0  0  0  0  0  0  0  0  0  0  0  0
    2.2513    1.9208   -1.2189 C   0  0  0  0  0  0  0  0  0  0  0  0
    0.0156   -2.4972   -1.1741 H   0  0  0  0  0  0  0  0  0  0  0  0
    1.7883   -2.9406    0.5117 H   0  0  0  0  0  0  0  0  0  0  0  0
    1.0727   -1.7852    1.6205 H   0  0  0  0  0  0  0  0  0  0  0  0
   -1.8774   -3.5861    0.0252 H   0  0  0  0  0  0  0  0  0  0  0  0
   -0.3180   -4.3433    0.3812 H   0  0  0  0  0  0  0  0  0  0  0  0
   -1.0783   -3.2870    1.5762 H   0  0  0  0  0  0  0  0  0  0  0  0
   -1.1367   -0.8227   -2.2372 H   0  0  0  0  0  0  0  0  0  0  0  0
   -1.1002   -0.9182    2.0742 H   0  0  0  0  0  0  0  0  0  0  0  0
   -2.5378    1.1970   -2.1777 H   0  0  0  0  0  0  0  0  0  0  0  0
   -2.4962    1.0968    2.1320 H   0  0  0  0  0  0  0  0  0  0  0  0
    2.4839    0.0595    1.7504 H   0  0  0  0  0  0  0  0  0  0  0  0
   -3.2656    3.1498   -0.8490 H   0  0  0  0  0  0  0  0  0  0  0  0
   -4.5182    2.2318    0.0199 H   0  0  0  0  0  0  0  0  0  0  0  0
   -3.2512    3.1073    0.9112 H   0  0  0  0  0  0  0  0  0  0  0  0
    3.7678    3.1131    0.7832 H   0  0  0  0  0  0  0  0  0  0  0  0
    2.0505    3.3738    1.1638 H   0  0  0  0  0  0  0  0  0  0  0  0
    3.0265    2.2848    2.1572 H   0  0  0  0  0  0  0  0  0  0  0  0
    3.2102    2.0742   -1.7236 H   0  0  0  0  0  0  0  0  0  0  0  0
    1.6946    2.8642   -1.2496 H   0  0  0  0  0  0  0  0  0  0  0  0
    1.6606    1.2058   -1.7958 H   0  0  0  0  0  0  0  0  0  0  0  0
  1  8  2  0  0  0  0
  2  3  1  0  0  0  0
  2  4  1  0  0  0  0
  2  5  1  0  0  0  0
  2 17  1  0  0  0  0
  3  8  1  0  0  0  0
  3 18  1  0  0  0  0
  3 19  1  0  0  0  0
  4  6  2  0  0  0  0
  4  7  1  0  0  0  0
  5 20  1  0  0  0  0
  5 21  1  0  0  0  0
  5 22  1  0  0  0  0
  6 10  1  0  0  0  0
  6 23  1  0  0  0  0
  7 11  2  0  0  0  0
  7 24  1  0  0  0  0
  8 12  1  0  0  0  0
  9 10  2  0  0  0  0
  9 11  1  0  0  0  0
  9 14  1  0  0  0  0
 10 25  1  0  0  0  0
 11 26  1  0  0  0  0
 12 13  2  0  0  0  0
 12 27  1  0  0  0  0
 13 15  1  0  0  0  0
 13 16  1  0  0  0  0
 14 28  1  0  0  0  0
 14 29  1  0  0  0  0
 14 30  1  0  0  0  0
 15 31  1  0  0  0  0
 15 32  1  0  0  0  0
 15 33  1  0  0  0  0
 16 34  1  0  0  0  0
 16 35  1  0  0  0  0
 16 36  1  0  0  0  0
M  END
> <PUBCHEM_COMPOUND_CID>
558221

> <PUBCHEM_CONFORMER_RMSD>
0.6

> <PUBCHEM_CONFORMER_DIVERSEORDER>
1
95
60
29
65
84
68
52
70
73
48
43
85
24
30
32
47
16
55
61
46
59
66
36
6
72
90
13
76
50
91
37
78
8
31
77
44
79
22
86
9
25
7
20
51
92
74
81
2
87
82
41
27
62
39
18
75
15
94
21
56
71
10
67
83
28
88
96
49
45
93
53
63
54
40
89
11
58
14
26
34
4
80
12
42
38
23
57
35
64
5
19
3
69
33
17

> <PUBCHEM_MMFF94_PARTIAL_CHARGES>
20
1 -0.57
10 -0.15
11 -0.15
12 -0.14
13 -0.28
14 0.14
15 0.14
16 0.14
2 0.14
23 0.15
24 0.15
25 0.15
26 0.15
27 0.15
3 0.06
4 -0.14
6 -0.15
7 -0.15
8 0.49
9 -0.14

> <PUBCHEM_EFFECTIVE_ROTOR_COUNT>
4

> <PUBCHEM_PHARMACOPHORE_FEATURES>
4
1 1 acceptor
1 5 hydrophobe
3 13 15 16 hydrophobe
6 4 6 7 9 10 11 rings

> <PUBCHEM_HEAVY_ATOM_COUNT>
16

> <PUBCHEM_ATOM_DEF_STEREO_COUNT>
0

> <PUBCHEM_ATOM_UDEF_STEREO_COUNT>
1

> <PUBCHEM_BOND_DEF_STEREO_COUNT>
0

> <PUBCHEM_BOND_UDEF_STEREO_COUNT>
0

> <PUBCHEM_ISOTOPIC_ATOM_COUNT>
0

> <PUBCHEM_COMPONENT_COUNT>
1

> <PUBCHEM_CACTVS_TAUTO_COUNT>
5

> <PUBCHEM_CONFORMER_ID>
0008848D00000001

> <PUBCHEM_MMFF94_ENERGY>
36.8684

> <PUBCHEM_FEATURE_SELFOVERLAP>
20.297

> <PUBCHEM_SHAPE_FINGERPRINT>
10165383 225 18048355285586834668
11578080 2 12595679310137601363
128993 33 18188508967696312292
13618510 140 18410013234353725900
13693222 7 18337956821652934692
13764800 53 18194404630511357458
14026960 21 18335148583235668625
14386348 128 18267610033184765456
14614273 12 17982735469652852426
14713325 29 16960175414405984084
15775835 57 18201153265389770133
16945 1 18051408475011423635
18219364 16 18335146336545727561
18981168 100 18339934817216980448
20304884 271 18341891939287648392
20510252 161 17761486294077675330
21041028 32 16968291514540472931
21524375 3 18409164394091575639
21639500 275 18120641449478982565
22802520 49 17843428386112021988
23419403 2 13060961582640593319
23557571 272 17905047302439315438
23558518 356 18408881871290765255
25 1 18192718834283267463
2748010 2 18335712653690055879
3060560 45 18055066554286533583
3286 77 18116148870632458139
350125 39 18337118968017854738
474 4 18265889168928511865
49207404 50 18262255343275870025
526903 126 18056182807675788593
549884 4 18130229242170203476
7832392 63 17839169711036861781
81228 2 17972047091265542307
9981440 41 17771316924557442426

> <PUBCHEM_SHAPE_MULTIPOLES>
323.4
4.98
3.52
1.31
0.48
1.13
0.16
-4.45
-0.16
-0.15
-0.54
0.07
-0.27
0.4

> <PUBCHEM_SHAPE_SELFOVERLAP>
655.765

> <PUBCHEM_SHAPE_VOLUME>
190.1

> <PUBCHEM_COORDINATE_TYPE>
2
5
10

$$$$
