5315472
  -OEChem-09222402073D

 39 40  0     0  0  0  0  0  0999 V2000
    1.1247    1.8055    0.9807 O   0  0  0  0  0  0  0  0  0  0  0  0
   -1.1086    1.7738   -0.9691 O   0  0  0  0  0  0  0  0  0  0  0  0
    8.8200   -1.3152   -0.4327 O   0  0  0  0  0  0  0  0  0  0  0  0
   -8.8317   -1.2993    0.3969 O   0  0  0  0  0  0  0  0  0  0  0  0
   -0.0011   -0.1101    0.0471 C   0  0  0  0  0  0  0  0  0  0  0  0
    5.0267    0.1816    0.2299 C   0  0  0  0  0  0  0  0  0  0  0  0
   -5.0250    0.1746   -0.2395 C   0  0  0  0  0  0  0  0  0  0  0  0
    1.2145    0.7065    0.4390 C   0  0  0  0  0  0  0  0  0  0  0  0
   -1.2086    0.6933   -0.3935 C   0  0  0  0  0  0  0  0  0  0  0  0
    3.6739    0.7163    0.4658 C   0  0  0  0  0  0  0  0  0  0  0  0
   -3.6674    0.7013   -0.4661 C   0  0  0  0  0  0  0  0  0  0  0  0
    2.5377    0.0706    0.1680 C   0  0  0  0  0  0  0  0  0  0  0  0
   -2.5369    0.0664   -0.1259 C   0  0  0  0  0  0  0  0  0  0  0  0
    5.1984   -1.1832    0.0658 C   0  0  0  0  0  0  0  0  0  0  0  0
   -5.2008   -1.1841   -0.0347 C   0  0  0  0  0  0  0  0  0  0  0  0
    6.1006    1.0552    0.1764 C   0  0  0  0  0  0  0  0  0  0  0  0
   -6.0991    1.0497   -0.2354 C   0  0  0  0  0  0  0  0  0  0  0  0
    6.4792   -1.6884   -0.1577 C   0  0  0  0  0  0  0  0  0  0  0  0
   -6.4861   -1.6816    0.1799 C   0  0  0  0  0  0  0  0  0  0  0  0
    7.3815    0.5501   -0.0471 C   0  0  0  0  0  0  0  0  0  0  0  0
   -7.3845    0.5523   -0.0206 C   0  0  0  0  0  0  0  0  0  0  0  0
    7.5708   -0.8218   -0.2143 C   0  0  0  0  0  0  0  0  0  0  0  0
   -7.5780   -0.8134    0.1871 C   0  0  0  0  0  0  0  0  0  0  0  0
   -0.2604   -0.7221    0.9183 H   0  0  0  0  0  0  0  0  0  0  0  0
    0.2512   -0.7769   -0.7851 H   0  0  0  0  0  0  0  0  0  0  0  0
    3.6381    1.7116    0.9028 H   0  0  0  0  0  0  0  0  0  0  0  0
   -3.6229    1.6817   -0.9348 H   0  0  0  0  0  0  0  0  0  0  0  0
    2.5118   -0.9101   -0.2916 H   0  0  0  0  0  0  0  0  0  0  0  0
   -2.5195   -0.8988    0.3659 H   0  0  0  0  0  0  0  0  0  0  0  0
    4.3822   -1.8963    0.1235 H   0  0  0  0  0  0  0  0  0  0  0  0
   -4.3840   -1.8986   -0.0532 H   0  0  0  0  0  0  0  0  0  0  0  0
    5.9691    2.1265    0.3032 H   0  0  0  0  0  0  0  0  0  0  0  0
   -5.9643    2.1164   -0.3942 H   0  0  0  0  0  0  0  0  0  0  0  0
    6.6145   -2.7596   -0.2816 H   0  0  0  0  0  0  0  0  0  0  0  0
   -6.6247   -2.7481    0.3359 H   0  0  0  0  0  0  0  0  0  0  0  0
    8.2278    1.2301   -0.0904 H   0  0  0  0  0  0  0  0  0  0  0  0
   -8.2310    1.2336   -0.0158 H   0  0  0  0  0  0  0  0  0  0  0  0
    8.7654   -2.2819   -0.5255 H   0  0  0  0  0  0  0  0  0  0  0  0
   -8.7796   -2.2625    0.5220 H   0  0  0  0  0  0  0  0  0  0  0  0
  1  8  2  0  0  0  0
  2  9  2  0  0  0  0
  3 22  1  0  0  0  0
  3 38  1  0  0  0  0
  4 23  1  0  0  0  0
  4 39  1  0  0  0  0
  5  8  1  0  0  0  0
  5  9  1  0  0  0  0
  5 24  1  0  0  0  0
  5 25  1  0  0  0  0
  6 10  1  0  0  0  0
  6 14  2  0  0  0  0
  6 16  1  0  0  0  0
  7 11  1  0  0  0  0
  7 15  2  0  0  0  0
  7 17  1  0  0  0  0
  8 12  1  0  0  0  0
  9 13  1  0  0  0  0
 10 12  2  0  0  0  0
 10 26  1  0  0  0  0
 11 13  2  0  0  0  0
 11 27  1  0  0  0  0
 12 28  1  0  0  0  0
 13 29  1  0  0  0  0
 14 18  1  0  0  0  0
 14 30  1  0  0  0  0
 15 19  1  0  0  0  0
 15 31  1  0  0  0  0
 16 20  2  0  0  0  0
 16 32  1  0  0  0  0
 17 21  2  0  0  0  0
 17 33  1  0  0  0  0
 18 22  2  0  0  0  0
 18 34  1  0  0  0  0
 19 23  2  0  0  0  0
 19 35  1  0  0  0  0
 20 22  1  0  0  0  0
 20 36  1  0  0  0  0
 21 23  1  0  0  0  0
 21 37  1  0  0  0  0
M  END
> <PUBCHEM_COMPOUND_CID>
5315472

> <PUBCHEM_CONFORMER_RMSD>
0.8

> <PUBCHEM_CONFORMER_DIVERSEORDER>
1
71
8
18
65
2
77
24
48
82
54
73
37
16
29
17
35
22
33
7
66
5
63
9
74
13
57
32
38
34
21
47
43
45
25
30
12
3
79
51
15
19
69
52
55
83
62
64
39
14
26
11
80
70
4
49
36
40
42
56
81
61
60
53
6
78
76
58
31
67
84
23
28
46
75
59
27
20
50
68
41
10
44
72

> <PUBCHEM_MMFF94_PARTIAL_CHARGES>
37
1 -0.57
10 -0.18
11 -0.18
12 -0.14
13 -0.14
14 -0.15
15 -0.15
16 -0.15
17 -0.15
18 -0.15
19 -0.15
2 -0.57
20 -0.15
21 -0.15
22 0.08
23 0.08
26 0.15
27 0.15
28 0.15
29 0.15
3 -0.53
30 0.15
31 0.15
32 0.15
33 0.15
34 0.15
35 0.15
36 0.15
37 0.15
38 0.45
39 0.45
4 -0.53
5 0.12
6 0.03
7 0.03
8 0.49
9 0.49

> <PUBCHEM_EFFECTIVE_ROTOR_COUNT>
6

> <PUBCHEM_PHARMACOPHORE_FEATURES>
7
1 1 acceptor
1 2 acceptor
1 3 donor
1 4 donor
1 5 anion
6 6 14 16 18 20 22 rings
6 7 15 17 19 21 23 rings

> <PUBCHEM_HEAVY_ATOM_COUNT>
23

> <PUBCHEM_ATOM_DEF_STEREO_COUNT>
0

> <PUBCHEM_ATOM_UDEF_STEREO_COUNT>
0

> <PUBCHEM_BOND_DEF_STEREO_COUNT>
2

> <PUBCHEM_BOND_UDEF_STEREO_COUNT>
0

> <PUBCHEM_ISOTOPIC_ATOM_COUNT>
0

> <PUBCHEM_COMPONENT_COUNT>
1

> <PUBCHEM_CACTVS_TAUTO_COUNT>
35

> <PUBCHEM_CONFORMER_ID>
00511B9000000001

> <PUBCHEM_MMFF94_ENERGY>
60.2669

> <PUBCHEM_FEATURE_SELFOVERLAP>
35.522

> <PUBCHEM_SHAPE_FINGERPRINT>
10050765 1 18048313345072699774
10066227 49 18341332185180948134
100830 39 18341895126766182489
10299344 5 18410856559639796067
11315181 36 18410576193883265705
11524674 6 17132111364394345415
12091667 2 16805321085818830413
125118 31 10952048974515876546
12592606 108 18201715189347109495
13540713 5 15480956146658715025
13668630 136 18271808991456921078
13673619 4 18411134740377233808
13685833 64 18342738520407394496
13885169 127 18411136909878803465
13968360 50 13479122489319185464
14123256 10 15502374521545302588
14178184 131 18057885934562018839
14251764 18 17988925578304143581
14251764 46 18411136939405146986
14344974 52 16009042717721226086
14556957 393 15140968296770690063
14729087 3 10375872974486119323
14933364 13 18410291414968986797
15183329 4 18333731299371998938
15352257 5 18410855464429007983
15419008 91 18263059115755762180
155225 1 8214141854634446214
15716309 27 18272931643914644863
15849732 13 18261110785440041982
17093844 174 11600004363036012885
18335252 98 18409448090320278092
18643901 69 18260831483780125463
19301679 30 17131000763471694486
19841028 212 18337952265273766274
20281389 69 11240003351546949706
20554085 129 10953738954337752628
21095086 128 18334856116931329539
21150785 3 16008749108528396254
21267235 1 18411419513888509497
21315763 28 18410573985157232596
21360443 120 16732980916918363011
21792961 116 18130220454540866212
22956985 138 16842499839041183550
23035841 295 18113897165576780065
232437 2 18410857663446793903
23559900 14 18339917234016971169
246663 6 18410857663446534055
249057 3 15647341865471434635
28498 318 18201436952189950061
3178227 256 17632858642144040474
328311 84 18343584040274625028
33532 11 18411416194184907194
4073 2 18114746061336135810
4107672 100 17895468121316168677
4325135 7 17458344139034500966
5385378 56 13901918786437772924
5937810 71 11747199253201791159
67123 10 18335702758718545100
8209 1 18333731316546521244
999808 66 18335426794174637795

> <PUBCHEM_SHAPE_MULTIPOLES>
449.85
30
1.59
0.73
0.19
0.2
0
12.09
-0.37
-0.03
0
-0.01
-0.11
1

> <PUBCHEM_SHAPE_SELFOVERLAP>
956.973

> <PUBCHEM_SHAPE_VOLUME>
250.1

> <PUBCHEM_COORDINATE_TYPE>
2
5
10

$$$$
