71680913
  -OEChem-10022411103D

 37 38  0     0  0  0  0  0  0999 V2000
   -0.0711    3.3911   -0.5688 O   0  0  0  0  0  0  0  0  0  0  0  0
   -3.8316   -2.4464    0.6774 O   0  0  0  0  0  0  0  0  0  0  0  0
   -1.7287   -3.9973    0.0386 O   0  0  0  0  0  0  0  0  0  0  0  0
    0.7916    1.7093    0.7743 N   0  0  0  0  0  0  0  0  0  0  0  0
   -1.6803   -2.6066   -0.1348 N   0  0  0  0  0  0  0  0  0  0  0  0
    3.0900    1.8430   -0.1274 C   0  0  0  0  0  0  0  0  0  0  0  0
    2.1036    2.2902    0.9486 C   0  0  0  0  0  0  0  0  0  0  0  0
    3.2764    0.3462   -0.1695 C   0  0  0  0  0  0  0  0  0  0  0  0
   -1.4986    1.6071   -0.0418 C   0  0  0  0  0  0  0  0  0  0  0  0
   -0.2240    2.3048    0.0173 C   0  0  0  0  0  0  0  0  0  0  0  0
    4.2692   -0.2550    0.6043 C   0  0  0  0  0  0  0  0  0  0  0  0
    2.4559   -0.4362   -0.9822 C   0  0  0  0  0  0  0  0  0  0  0  0
   -1.5439    0.2221    0.1171 C   0  0  0  0  0  0  0  0  0  0  0  0
   -2.7666   -0.4471    0.0593 C   0  0  0  0  0  0  0  0  0  0  0  0
   -2.6760    2.3232   -0.2588 C   0  0  0  0  0  0  0  0  0  0  0  0
    4.4415   -1.6387    0.5655 C   0  0  0  0  0  0  0  0  0  0  0  0
    2.6283   -1.8200   -1.0210 C   0  0  0  0  0  0  0  0  0  0  0  0
   -3.9439    0.2689   -0.1576 C   0  0  0  0  0  0  0  0  0  0  0  0
   -3.8985    1.6540   -0.3168 C   0  0  0  0  0  0  0  0  0  0  0  0
    3.6210   -2.4212   -0.2470 C   0  0  0  0  0  0  0  0  0  0  0  0
   -2.8144   -1.8913    0.2231 C   0  0  0  0  0  0  0  0  0  0  0  0
    2.7516    2.1899   -1.1126 H   0  0  0  0  0  0  0  0  0  0  0  0
    4.0595    2.3279    0.0422 H   0  0  0  0  0  0  0  0  0  0  0  0
    2.4554    1.9912    1.9423 H   0  0  0  0  0  0  0  0  0  0  0  0
    2.0152    3.3819    0.9378 H   0  0  0  0  0  0  0  0  0  0  0  0
    0.6091    0.8574    1.2933 H   0  0  0  0  0  0  0  0  0  0  0  0
    4.9132    0.3439    1.2427 H   0  0  0  0  0  0  0  0  0  0  0  0
    1.6801    0.0186   -1.5923 H   0  0  0  0  0  0  0  0  0  0  0  0
   -0.6306   -0.3410    0.2772 H   0  0  0  0  0  0  0  0  0  0  0  0
   -2.6630    3.4031   -0.3812 H   0  0  0  0  0  0  0  0  0  0  0  0
    5.2140   -2.1070    1.1684 H   0  0  0  0  0  0  0  0  0  0  0  0
    1.9888   -2.4293   -1.6531 H   0  0  0  0  0  0  0  0  0  0  0  0
   -4.9058   -0.2343   -0.2104 H   0  0  0  0  0  0  0  0  0  0  0  0
   -4.8152    2.2115   -0.4858 H   0  0  0  0  0  0  0  0  0  0  0  0
    3.7546   -3.4986   -0.2768 H   0  0  0  0  0  0  0  0  0  0  0  0
   -0.8558   -2.2406   -0.5976 H   0  0  0  0  0  0  0  0  0  0  0  0
   -1.2298   -4.2880   -0.7434 H   0  0  0  0  0  0  0  0  0  0  0  0
  1 10  2  0  0  0  0
  2 21  2  0  0  0  0
  3  5  1  0  0  0  0
  3 37  1  0  0  0  0
  4  7  1  0  0  0  0
  4 10  1  0  0  0  0
  4 26  1  0  0  0  0
  5 21  1  0  0  0  0
  5 36  1  0  0  0  0
  6  7  1  0  0  0  0
  6  8  1  0  0  0  0
  6 22  1  0  0  0  0
  6 23  1  0  0  0  0
  7 24  1  0  0  0  0
  7 25  1  0  0  0  0
  8 11  2  0  0  0  0
  8 12  1  0  0  0  0
  9 10  1  0  0  0  0
  9 13  2  0  0  0  0
  9 15  1  0  0  0  0
 11 16  1  0  0  0  0
 11 27  1  0  0  0  0
 12 17  2  0  0  0  0
 12 28  1  0  0  0  0
 13 14  1  0  0  0  0
 13 29  1  0  0  0  0
 14 18  2  0  0  0  0
 14 21  1  0  0  0  0
 15 19  2  0  0  0  0
 15 30  1  0  0  0  0
 16 20  2  0  0  0  0
 16 31  1  0  0  0  0
 17 20  1  0  0  0  0
 17 32  1  0  0  0  0
 18 19  1  0  0  0  0
 18 33  1  0  0  0  0
 19 34  1  0  0  0  0
 20 35  1  0  0  0  0
M  END
> <PUBCHEM_COMPOUND_CID>
71680913

> <PUBCHEM_CONFORMER_RMSD>
0.8

> <PUBCHEM_CONFORMER_DIVERSEORDER>
1
50
12
9
73
17
67
34
14
26
74
24
30
39
10
37
52
33
49
19
38
29
58
22
75
59
42
32
46
41
57
44
20
36
25
51
64
11
23
8
21
71
62
40
15
66
35
13
54
2
5
16
69
28
61
53
18
4
55
68
27
3
6
43
65
72
7
60
56
63
70
48
31
45
47

> <PUBCHEM_MMFF94_PARTIAL_CHARGES>
33
1 -0.57
10 0.54
11 -0.15
12 -0.15
13 -0.15
14 0.09
15 -0.15
16 -0.15
17 -0.15
18 -0.15
19 -0.15
2 -0.57
20 -0.15
21 0.54
26 0.37
27 0.15
28 0.15
29 0.15
3 -0.44
30 0.15
31 0.15
32 0.15
33 0.15
34 0.15
35 0.15
36 0.37
37 0.4
4 -0.73
5 -0.39
6 0.14
7 0.3
8 -0.14
9 0.09

> <PUBCHEM_EFFECTIVE_ROTOR_COUNT>
7

> <PUBCHEM_PHARMACOPHORE_FEATURES>
6
1 1 acceptor
1 2 acceptor
1 4 donor
1 5 donor
6 8 11 12 16 17 20 rings
6 9 13 14 15 18 19 rings

> <PUBCHEM_HEAVY_ATOM_COUNT>
21

> <PUBCHEM_ATOM_DEF_STEREO_COUNT>
0

> <PUBCHEM_ATOM_UDEF_STEREO_COUNT>
0

> <PUBCHEM_BOND_DEF_STEREO_COUNT>
0

> <PUBCHEM_BOND_UDEF_STEREO_COUNT>
0

> <PUBCHEM_ISOTOPIC_ATOM_COUNT>
0

> <PUBCHEM_COMPONENT_COUNT>
1

> <PUBCHEM_CACTVS_TAUTO_COUNT>
6

> <PUBCHEM_CONFORMER_ID>
0445C39100000001

> <PUBCHEM_MMFF94_ENERGY>
54.5256

> <PUBCHEM_FEATURE_SELFOVERLAP>
30.447

> <PUBCHEM_SHAPE_FINGERPRINT>
10616163 171 18267306615288509956
10693767 8 18057294298800660967
10759866 29 18334022717920549724
107951 10 17314237653163702545
1100329 8 16322032613085878357
11370993 70 18266455399820151206
117890 22 18341053003167497616
12038231 1 18266740375332604754
12506688 2 18272371962473975632
12553582 1 18267308822664427279
12633257 1 18270972245099905416
12990986 174 18408317796261348618
13122387 1 17331119391023937966
13140716 1 18412830157384535097
13402501 40 18270398278608325302
14251705 54 18267026239733632750
14251757 5 18194707907359988686
14617045 38 18339093695011275573
14790565 3 18051419457349230137
14863182 85 16964923190986811885
14866123 147 17694225469708576049
14916288 52 18411703196705179198
15352361 1 18411417280816420624
17492 89 18408044022135171466
17859628 97 18192712250525592915
19591789 44 18337674118579211145
19930381 70 17906733601046852903
21521239 73 18129075928410322941
221490 88 18410859880203592352
23559900 14 18411695466154702872
3680242 22 18121503444761802019
5309563 4 17472706196314409283
6433294 58 18411982498549653458
9709674 26 18341613681204506332

> <PUBCHEM_SHAPE_MULTIPOLES>
404.6
8.85
4.24
0.85
2.65
1.74
0.03
3.05
-0.37
-1.61
-0.14
0.42
-0.02
0.93

> <PUBCHEM_SHAPE_SELFOVERLAP>
858.275

> <PUBCHEM_SHAPE_VOLUME>
224.8

> <PUBCHEM_COORDINATE_TYPE>
2
5
10

$$$$
