637429
  -OEChem-09222403293D

 48 49  0     0  0  0  0  0  0999 V2000
   -7.7810   -2.0063    0.4372 O   0  0  0  0  0  0  0  0  0  0  0  0
    8.8462   -1.2459    0.2106 O   0  0  0  0  0  0  0  0  0  0  0  0
    0.6137    0.1059   -0.1072 O   0  0  0  0  0  0  0  0  0  0  0  0
   -9.6212    0.0423    0.0645 O   0  0  0  0  0  0  0  0  0  0  0  0
    9.1734    1.5033   -0.0276 O   0  0  0  0  0  0  0  0  0  0  0  0
   -1.3722    1.8564    0.3183 O   0  0  0  0  0  0  0  0  0  0  0  0
    1.4835   -1.9796   -0.5890 O   0  0  0  0  0  0  0  0  0  0  0  0
   -5.5569    0.8837    0.1827 C   0  0  0  0  0  0  0  0  0  0  0  0
    5.4034   -0.1701   -0.2869 C   0  0  0  0  0  0  0  0  0  0  0  0
   -5.9978   -0.4313    0.3315 C   0  0  0  0  0  0  0  0  0  0  0  0
   -7.3622   -0.7183    0.2921 C   0  0  0  0  0  0  0  0  0  0  0  0
   -6.4806    1.9118   -0.0058 C   0  0  0  0  0  0  0  0  0  0  0  0
    6.4957   -0.9972   -0.0813 C   0  0  0  0  0  0  0  0  0  0  0  0
    7.7698   -0.4363    0.0072 C   0  0  0  0  0  0  0  0  0  0  0  0
   -8.2859    0.3098    0.1036 C   0  0  0  0  0  0  0  0  0  0  0  0
    5.5500    1.2022   -0.4062 C   0  0  0  0  0  0  0  0  0  0  0  0
   -4.1343    1.1830    0.2244 C   0  0  0  0  0  0  0  0  0  0  0  0
   -7.8452    1.6247   -0.0455 C   0  0  0  0  0  0  0  0  0  0  0  0
    7.9340    0.9438   -0.1109 C   0  0  0  0  0  0  0  0  0  0  0  0
    6.8241    1.7630   -0.3174 C   0  0  0  0  0  0  0  0  0  0  0  0
    4.0575   -0.7627   -0.3808 C   0  0  0  0  0  0  0  0  0  0  0  0
   -3.1423    0.2889    0.0178 C   0  0  0  0  0  0  0  0  0  0  0  0
   -0.7035   -0.3988   -0.1925 C   0  0  0  0  0  0  0  0  0  0  0  0
   -1.7095    0.7014    0.0728 C   0  0  0  0  0  0  0  0  0  0  0  0
    2.9140   -0.0878   -0.1957 C   0  0  0  0  0  0  0  0  0  0  0  0
    1.6199   -0.7948   -0.3282 C   0  0  0  0  0  0  0  0  0  0  0  0
   -7.9076   -2.7846   -0.7513 C   0  0  0  0  0  0  0  0  0  0  0  0
    9.2147   -1.5066    1.5636 C   0  0  0  0  0  0  0  0  0  0  0  0
   -5.3107   -1.2561    0.5003 H   0  0  0  0  0  0  0  0  0  0  0  0
   -6.1560    2.9428   -0.1252 H   0  0  0  0  0  0  0  0  0  0  0  0
    6.3763   -2.0738    0.0128 H   0  0  0  0  0  0  0  0  0  0  0  0
    4.7185    1.8753   -0.5892 H   0  0  0  0  0  0  0  0  0  0  0  0
   -3.8814    2.2211    0.4294 H   0  0  0  0  0  0  0  0  0  0  0  0
   -8.5540    2.4351   -0.1932 H   0  0  0  0  0  0  0  0  0  0  0  0
    6.9390    2.8393   -0.4160 H   0  0  0  0  0  0  0  0  0  0  0  0
    4.0327   -1.8244   -0.6160 H   0  0  0  0  0  0  0  0  0  0  0  0
   -3.3255   -0.7535   -0.2163 H   0  0  0  0  0  0  0  0  0  0  0  0
   -0.8442   -1.1843    0.5584 H   0  0  0  0  0  0  0  0  0  0  0  0
   -0.8804   -0.7932   -1.1995 H   0  0  0  0  0  0  0  0  0  0  0  0
    2.8740    0.9636    0.0635 H   0  0  0  0  0  0  0  0  0  0  0  0
  -10.1068    0.8737   -0.0741 H   0  0  0  0  0  0  0  0  0  0  0  0
   -8.2572   -3.7822   -0.4719 H   0  0  0  0  0  0  0  0  0  0  0  0
   -8.6385   -2.3350   -1.4307 H   0  0  0  0  0  0  0  0  0  0  0  0
   -6.9386   -2.8805   -1.2515 H   0  0  0  0  0  0  0  0  0  0  0  0
    9.0933    2.4671   -0.1310 H   0  0  0  0  0  0  0  0  0  0  0  0
    8.4021   -2.0168    2.0905 H   0  0  0  0  0  0  0  0  0  0  0  0
   10.0926   -2.1583    1.5601 H   0  0  0  0  0  0  0  0  0  0  0  0
    9.4715   -0.5762    2.0797 H   0  0  0  0  0  0  0  0  0  0  0  0
  1 11  1  0  0  0  0
  1 27  1  0  0  0  0
  2 14  1  0  0  0  0
  2 28  1  0  0  0  0
  3 23  1  0  0  0  0
  3 26  1  0  0  0  0
  4 15  1  0  0  0  0
  4 41  1  0  0  0  0
  5 19  1  0  0  0  0
  5 45  1  0  0  0  0
  6 24  2  0  0  0  0
  7 26  2  0  0  0  0
  8 10  2  0  0  0  0
  8 12  1  0  0  0  0
  8 17  1  0  0  0  0
  9 13  2  0  0  0  0
  9 16  1  0  0  0  0
  9 21  1  0  0  0  0
 10 11  1  0  0  0  0
 10 29  1  0  0  0  0
 11 15  2  0  0  0  0
 12 18  2  0  0  0  0
 12 30  1  0  0  0  0
 13 14  1  0  0  0  0
 13 31  1  0  0  0  0
 14 19  2  0  0  0  0
 15 18  1  0  0  0  0
 16 20  2  0  0  0  0
 16 32  1  0  0  0  0
 17 22  2  0  0  0  0
 17 33  1  0  0  0  0
 18 34  1  0  0  0  0
 19 20  1  0  0  0  0
 20 35  1  0  0  0  0
 21 25  2  0  0  0  0
 21 36  1  0  0  0  0
 22 24  1  0  0  0  0
 22 37  1  0  0  0  0
 23 24  1  0  0  0  0
 23 38  1  0  0  0  0
 23 39  1  0  0  0  0
 25 26  1  0  0  0  0
 25 40  1  0  0  0  0
 27 42  1  0  0  0  0
 27 43  1  0  0  0  0
 27 44  1  0  0  0  0
 28 46  1  0  0  0  0
 28 47  1  0  0  0  0
 28 48  1  0  0  0  0
M  END
> <PUBCHEM_COMPOUND_CID>
637429

> <PUBCHEM_CONFORMER_RMSD>
1

> <PUBCHEM_CONFORMER_DIVERSEORDER>
3
151
205
103
113
22
102
185
97
43
170
196
58
95
166
190
5
132
26
7
157
18
136
36
82
168
21
143
57
169
165
35
116
202
74
126
6
16
10
108
51
47
192
79
111
1
98
148
100
145
14
149
178
142
83
118
198
88
2
129
112
147
13
9
161
31
20
23
55
193
50
70
124
187
122
176
53
200
99
68
76
163
152
24
130
33
17
164
52
181
156
177
105
19
63
4
171
104
45
194
78
80
40
56
44
72
150
119
37
125
71
179
160
75
174
27
154
138
84
101
64
62
189
207
135
117
173
114
48
172
141
144
197
204
11
67
90
59
128
134
131
96
29
25
54
15
34
92
42
89
38
8
73
167
182
91
188
199
30
46
140
81
127
94
87
155
106
12
41
77
184
158
137
85
133
123
28
203
162
110
69
195
146
183
39
49
206
60
66
201
159
86
191
93
109
121
107
186
65
32
180
175
120
61
139
153
115

> <PUBCHEM_MMFF94_PARTIAL_CHARGES>
40
1 -0.36
10 -0.15
11 0.08
12 -0.15
13 -0.15
14 0.08
15 0.08
16 -0.15
17 -0.18
18 -0.15
19 0.08
2 -0.36
20 -0.15
21 -0.18
22 -0.14
23 0.34
24 0.49
25 -0.14
26 0.71
27 0.28
28 0.28
29 0.15
3 -0.43
30 0.15
31 0.15
32 0.15
33 0.15
34 0.15
35 0.15
36 0.15
37 0.15
4 -0.53
40 0.15
41 0.45
45 0.45
5 -0.53
6 -0.57
7 -0.57
8 0.03
9 0.03

> <PUBCHEM_EFFECTIVE_ROTOR_COUNT>
9

> <PUBCHEM_PHARMACOPHORE_FEATURES>
8
1 1 acceptor
1 2 acceptor
1 4 donor
1 5 donor
1 6 acceptor
1 7 acceptor
6 8 10 11 12 15 18 rings
6 9 13 14 16 19 20 rings

> <PUBCHEM_HEAVY_ATOM_COUNT>
28

> <PUBCHEM_ATOM_DEF_STEREO_COUNT>
0

> <PUBCHEM_ATOM_UDEF_STEREO_COUNT>
0

> <PUBCHEM_BOND_DEF_STEREO_COUNT>
2

> <PUBCHEM_BOND_UDEF_STEREO_COUNT>
0

> <PUBCHEM_ISOTOPIC_ATOM_COUNT>
0

> <PUBCHEM_COMPONENT_COUNT>
1

> <PUBCHEM_CACTVS_TAUTO_COUNT>
16

> <PUBCHEM_CONFORMER_ID>
0009B9F500000003

> <PUBCHEM_MMFF94_ENERGY>
94.7073

> <PUBCHEM_FEATURE_SELFOVERLAP>
40.598

> <PUBCHEM_SHAPE_FINGERPRINT>
10050765 1 18051133588203445093
10162869 55 17967813898979286014
11135926 11 18340476799214605151
11315181 36 18272937112241696577
11408170 108 14779816128296558240
11638347 137 17603304826452070138
12082328 90 18130790010760591781
12089408 11 18335421266282227932
13422730 43 18412260636041272282
14118638 360 15912775985513876039
14142895 15 18411703231418397780
14150022 121 18201442416027667817
14251764 46 18410012126130292037
14400156 96 17822858723192376764
15145343 6 16917067793886549931
15183329 4 8574715693356739676
15461852 350 18411989073907220095
15510794 2 18130793334390117526
15728490 51 18272369793726299543
15840311 113 18259990388573482100
17686467 74 18260548961496493705
18335252 98 18273218586342837167
18608769 82 18343301483261600447
21095123 145 17346318241297665519
21315763 28 18407760330923219748
21362267 20 18333450971727784419
21362267 313 18266457599418010736
21895431 317 17532362086014039586
22224240 67 18113338604837549978
232437 2 18335140878011598370
249057 3 15841545297181953004
28498 318 7925915872260346616
33684 2 18260830380369071409
395649 100 18260830449553467083
4325135 7 18409450284700510909
4339292 15 17703219724923378295
4625314 4 18408041814494938429
59682541 35 17917989477599734394
67123 10 18411138038911571500
99344 41 18408605842453755831

> <PUBCHEM_SHAPE_MULTIPOLES>
535.14
39.03
2.08
0.77
6.72
0.52
-0.12
3.66
-4.18
-1.95
0.13
0.7
0.22
-1.49

> <PUBCHEM_SHAPE_SELFOVERLAP>
1130.674

> <PUBCHEM_SHAPE_VOLUME>
299.7

> <PUBCHEM_COORDINATE_TYPE>
2
5
10

$$$$
