134492522
  -OEChem-10022411203D

 40 42  0     0  0  0  0  0  0999 V2000
    5.7570    1.5259   -1.0885 F   0  0  0  0  0  0  0  0  0  0  0  0
    5.7876    1.4545    1.0789 F   0  0  0  0  0  0  0  0  0  0  0  0
    6.2030   -0.3434   -0.0713 F   0  0  0  0  0  0  0  0  0  0  0  0
   -2.9799    2.4963    0.7012 O   0  0  0  0  0  0  0  0  0  0  0  0
   -5.1789    3.6055   -0.3806 O   0  0  0  0  0  0  0  0  0  0  0  0
    0.0294   -0.5497    0.0099 N   0  0  0  0  0  0  0  0  0  0  0  0
    2.2504   -1.2830   -0.0459 N   0  0  0  0  0  0  0  0  0  0  0  0
    3.0517    1.4037    0.0309 N   0  0  0  0  0  0  0  0  0  0  0  0
   -4.9600    2.2219   -0.4466 N   0  0  0  0  0  0  0  0  0  0  0  0
   -0.5881   -1.9148   -0.0294 C   0  0  0  0  0  0  0  0  0  0  0  0
   -2.0758   -1.5998    0.0009 C   0  0  0  0  0  0  0  0  0  0  0  0
   -0.9974    0.5160    0.0595 C   0  0  0  0  0  0  0  0  0  0  0  0
   -2.2905   -0.2237    0.0521 C   0  0  0  0  0  0  0  0  0  0  0  0
   -0.2056   -2.6321   -1.3269 C   0  0  0  0  0  0  0  0  0  0  0  0
   -0.1727   -2.7197    1.2054 C   0  0  0  0  0  0  0  0  0  0  0  0
   -3.5703    0.3079    0.0881 C   0  0  0  0  0  0  0  0  0  0  0  0
   -3.1531   -2.4779   -0.0159 C   0  0  0  0  0  0  0  0  0  0  0  0
    1.3587   -0.2735    0.0000 C   0  0  0  0  0  0  0  0  0  0  0  0
   -4.6549   -0.5696    0.0717 C   0  0  0  0  0  0  0  0  0  0  0  0
   -4.4476   -1.9547    0.0197 C   0  0  0  0  0  0  0  0  0  0  0  0
    1.7522    1.0462    0.0378 C   0  0  0  0  0  0  0  0  0  0  0  0
   -3.7970    1.7432    0.1402 C   0  0  0  0  0  0  0  0  0  0  0  0
    3.5499   -0.9255   -0.0526 C   0  0  0  0  0  0  0  0  0  0  0  0
    3.9434    0.3942   -0.0149 C   0  0  0  0  0  0  0  0  0  0  0  0
    5.3886    0.7520   -0.0237 C   0  0  0  0  0  0  0  0  0  0  0  0
   -0.9328    1.1623   -0.8229 H   0  0  0  0  0  0  0  0  0  0  0  0
   -0.8978    1.0881    0.9882 H   0  0  0  0  0  0  0  0  0  0  0  0
   -0.4292   -2.0143   -2.2052 H   0  0  0  0  0  0  0  0  0  0  0  0
   -0.7621   -3.5701   -1.4384 H   0  0  0  0  0  0  0  0  0  0  0  0
    0.8567   -2.8892   -1.3696 H   0  0  0  0  0  0  0  0  0  0  0  0
   -0.3736   -2.1644    2.1297 H   0  0  0  0  0  0  0  0  0  0  0  0
   -0.7264   -3.6640    1.2658 H   0  0  0  0  0  0  0  0  0  0  0  0
    0.8904   -2.9774    1.2029 H   0  0  0  0  0  0  0  0  0  0  0  0
   -2.9999   -3.5513   -0.0546 H   0  0  0  0  0  0  0  0  0  0  0  0
   -5.6811   -0.2155    0.1215 H   0  0  0  0  0  0  0  0  0  0  0  0
   -5.3012   -2.6271    0.0127 H   0  0  0  0  0  0  0  0  0  0  0  0
    1.0783    1.8927    0.0752 H   0  0  0  0  0  0  0  0  0  0  0  0
    4.2534   -1.7485   -0.0896 H   0  0  0  0  0  0  0  0  0  0  0  0
   -5.6917    1.6750   -0.8852 H   0  0  0  0  0  0  0  0  0  0  0  0
   -4.8646    3.8704   -1.2617 H   0  0  0  0  0  0  0  0  0  0  0  0
  1 25  1  0  0  0  0
  2 25  1  0  0  0  0
  3 25  1  0  0  0  0
  4 22  2  0  0  0  0
  5  9  1  0  0  0  0
  5 40  1  0  0  0  0
  6 10  1  0  0  0  0
  6 12  1  0  0  0  0
  6 18  1  0  0  0  0
  7 18  2  0  0  0  0
  7 23  1  0  0  0  0
  8 21  2  0  0  0  0
  8 24  1  0  0  0  0
  9 22  1  0  0  0  0
  9 39  1  0  0  0  0
 10 11  1  0  0  0  0
 10 14  1  0  0  0  0
 10 15  1  0  0  0  0
 11 13  1  0  0  0  0
 11 17  2  0  0  0  0
 12 13  1  0  0  0  0
 12 26  1  0  0  0  0
 12 27  1  0  0  0  0
 13 16  2  0  0  0  0
 14 28  1  0  0  0  0
 14 29  1  0  0  0  0
 14 30  1  0  0  0  0
 15 31  1  0  0  0  0
 15 32  1  0  0  0  0
 15 33  1  0  0  0  0
 16 19  1  0  0  0  0
 16 22  1  0  0  0  0
 17 20  1  0  0  0  0
 17 34  1  0  0  0  0
 18 21  1  0  0  0  0
 19 20  2  0  0  0  0
 19 35  1  0  0  0  0
 20 36  1  0  0  0  0
 21 37  1  0  0  0  0
 23 24  2  0  0  0  0
 23 38  1  0  0  0  0
 24 25  1  0  0  0  0
M  END
> <PUBCHEM_COMPOUND_CID>
134492522

> <PUBCHEM_CONFORMER_RMSD>
0.8

> <PUBCHEM_CONFORMER_DIVERSEORDER>
1
7
5
2
6
3
4

> <PUBCHEM_MMFF94_PARTIAL_CHARGES>
30
1 -0.34
10 0.51
11 -0.14
12 0.51
13 -0.14
16 0.09
17 -0.15
18 0.41
19 -0.15
2 -0.34
20 -0.15
21 0.16
22 0.54
23 0.16
24 0.17
25 1.16
3 -0.34
34 0.15
35 0.15
36 0.15
37 0.15
38 0.15
39 0.37
4 -0.57
40 0.4
5 -0.44
6 -0.84
7 -0.62
8 -0.62
9 -0.39

> <PUBCHEM_EFFECTIVE_ROTOR_COUNT>
4.6

> <PUBCHEM_PHARMACOPHORE_FEATURES>
8
1 4 acceptor
1 8 acceptor
1 9 donor
3 10 14 15 hydrophobe
3 6 7 18 cation
5 6 10 11 12 13 rings
6 11 13 16 17 19 20 rings
6 7 8 18 21 23 24 rings

> <PUBCHEM_HEAVY_ATOM_COUNT>
25

> <PUBCHEM_ATOM_DEF_STEREO_COUNT>
0

> <PUBCHEM_ATOM_UDEF_STEREO_COUNT>
0

> <PUBCHEM_BOND_DEF_STEREO_COUNT>
0

> <PUBCHEM_BOND_UDEF_STEREO_COUNT>
0

> <PUBCHEM_ISOTOPIC_ATOM_COUNT>
0

> <PUBCHEM_COMPONENT_COUNT>
1

> <PUBCHEM_CACTVS_TAUTO_COUNT>
5

> <PUBCHEM_CONFORMER_ID>
0804316A00000001

> <PUBCHEM_MMFF94_ENERGY>
83.1175

> <PUBCHEM_FEATURE_SELFOVERLAP>
40.674

> <PUBCHEM_SHAPE_FINGERPRINT>
10050765 1 18265614287154167291
10411042 1 17906172111884069739
10595046 47 18262518208027261782
10675989 125 17328860998921321669
11578080 2 17097192962624456015
12107183 9 17974278833771554466
12236239 1 17967530211799219722
12390115 104 18270695194303675457
12403259 415 18131346444631245561
12596602 18 17168423877840221498
12916748 109 18337116751535038170
13073987 5 18334853939868304922
13140716 1 18190740838883005595
13540713 4 18194982759744814239
13540713 5 18192693580814999179
14142880 1 18260544520510261885
14251764 75 17981896233650642297
14466204 15 18410006633146994480
14508225 48 17697301173599897599
14790565 3 18335143119973892972
15042514 8 18123472953972442271
15131766 46 15938672985400489214
15196674 1 18410856542750343562
17844677 252 18339368573308837024
17980427 23 18041005054987658909
21033648 29 17917416662175227352
21033650 10 18194713469204720116
21065198 48 18260260837324697242
21236236 1 18412262844065860397
21267235 1 18338243781081699986
21279426 13 18270970046709834702
21421861 104 17677600970424722498
23402539 116 18341045310817754174
23559900 14 18198616820929366945
283562 15 18334855061266544083
2838139 119 18343012298713040076
2916195 48 18342733057277702440
3004659 81 18407762539385567030
34797466 226 17631465630006015940
350125 39 18410859905936453321
3545911 37 18341897402259143611
4073 2 18113904905408956970
4214541 1 18410856568261561072
5104073 3 18335136471259180402
513202 73 16516793755506850002
5283173 99 18413108372755394224
559249 180 18410853248979997498
6327066 14 18262795143540604381
633830 44 18336542711986881167
636775 72 18194119845075964152
7808743 9 18337106779021910089
9709674 26 18340495559637041094
9981440 41 18335143089878065163

> <PUBCHEM_SHAPE_MULTIPOLES>
461
12.81
3.26
0.82
13.61
0.84
-0.02
8.05
-0.43
-4.59
-0.12
0.24
-0.23
0.22

> <PUBCHEM_SHAPE_SELFOVERLAP>
1009.715

> <PUBCHEM_SHAPE_VOLUME>
253.2

> <PUBCHEM_COORDINATE_TYPE>
2
5
10

$$$$
