14633002
  -OEChem-09222403503D

 37 37  0     0  0  0  0  0  0999 V2000
    0.5734   -1.7500    1.7719 O   0  0  0  0  0  0  0  0  0  0  0  0
    4.4547    1.2759   -0.5014 O   0  0  0  0  0  0  0  0  0  0  0  0
   -2.7857    1.7107   -0.8070 C   0  0  0  0  0  0  0  0  0  0  0  0
   -3.1929    0.2744   -1.2314 C   0  0  0  0  0  0  0  0  0  0  0  0
   -1.7751    1.7018    0.3344 C   0  0  0  0  0  0  0  0  0  0  0  0
    0.6955    1.2885    0.9011 C   0  0  0  0  0  0  0  0  0  0  0  0
   -0.0903   -1.9598   -0.5441 C   0  0  0  0  0  0  0  0  0  0  0  0
    1.3225    0.0092    0.3955 C   0  0  0  0  0  0  0  0  0  0  0  0
   -1.5423   -1.5402   -0.5248 C   0  0  0  0  0  0  0  0  0  0  0  0
   -1.9674   -0.5944   -1.3876 C   0  0  0  0  0  0  0  0  0  0  0  0
   -0.4612    1.6823    0.0271 C   0  0  0  0  0  0  0  0  0  0  0  0
    0.6201   -1.2878    0.6324 C   0  0  0  0  0  0  0  0  0  0  0  0
   -2.3538    1.5541    1.7112 C   0  0  0  0  0  0  0  0  0  0  0  0
    2.5108   -0.0707   -0.2166 C   0  0  0  0  0  0  0  0  0  0  0  0
   -2.3856   -2.1467    0.5625 C   0  0  0  0  0  0  0  0  0  0  0  0
    3.1452   -1.3483   -0.6577 C   0  0  0  0  0  0  0  0  0  0  0  0
    3.2321    1.2009   -0.4655 C   0  0  0  0  0  0  0  0  0  0  0  0
   -3.6768    2.2817   -0.5204 H   0  0  0  0  0  0  0  0  0  0  0  0
   -2.3650    2.2322   -1.6774 H   0  0  0  0  0  0  0  0  0  0  0  0
   -3.7333    0.3127   -2.1840 H   0  0  0  0  0  0  0  0  0  0  0  0
   -3.8922   -0.1276   -0.4928 H   0  0  0  0  0  0  0  0  0  0  0  0
    1.3885    2.1293    0.9854 H   0  0  0  0  0  0  0  0  0  0  0  0
    0.3727    1.1059    1.9316 H   0  0  0  0  0  0  0  0  0  0  0  0
    0.0134   -3.0464   -0.4514 H   0  0  0  0  0  0  0  0  0  0  0  0
    0.4009   -1.6824   -1.4832 H   0  0  0  0  0  0  0  0  0  0  0  0
   -1.2790   -0.2551   -2.1613 H   0  0  0  0  0  0  0  0  0  0  0  0
   -0.1866    1.8241   -1.0191 H   0  0  0  0  0  0  0  0  0  0  0  0
   -3.0411    2.3827    1.9134 H   0  0  0  0  0  0  0  0  0  0  0  0
   -1.5999    1.5704    2.5010 H   0  0  0  0  0  0  0  0  0  0  0  0
   -2.9141    0.6191    1.7988 H   0  0  0  0  0  0  0  0  0  0  0  0
   -3.4565   -2.0027    0.3988 H   0  0  0  0  0  0  0  0  0  0  0  0
   -2.1281   -1.7267    1.5388 H   0  0  0  0  0  0  0  0  0  0  0  0
   -2.2238   -3.2296    0.6010 H   0  0  0  0  0  0  0  0  0  0  0  0
    3.0286   -1.4715   -1.7395 H   0  0  0  0  0  0  0  0  0  0  0  0
    2.7523   -2.2417   -0.1653 H   0  0  0  0  0  0  0  0  0  0  0  0
    4.2187   -1.3361   -0.4379 H   0  0  0  0  0  0  0  0  0  0  0  0
    2.6180    2.0978   -0.6368 H   0  0  0  0  0  0  0  0  0  0  0  0
  1 12  2  0  0  0  0
  2 17  2  0  0  0  0
  3  4  1  0  0  0  0
  3  5  1  0  0  0  0
  3 18  1  0  0  0  0
  3 19  1  0  0  0  0
  4 10  1  0  0  0  0
  4 20  1  0  0  0  0
  4 21  1  0  0  0  0
  5 11  2  0  0  0  0
  5 13  1  0  0  0  0
  6  8  1  0  0  0  0
  6 11  1  0  0  0  0
  6 22  1  0  0  0  0
  6 23  1  0  0  0  0
  7  9  1  0  0  0  0
  7 12  1  0  0  0  0
  7 24  1  0  0  0  0
  7 25  1  0  0  0  0
  8 12  1  0  0  0  0
  8 14  2  0  0  0  0
  9 10  2  0  0  0  0
  9 15  1  0  0  0  0
 10 26  1  0  0  0  0
 11 27  1  0  0  0  0
 13 28  1  0  0  0  0
 13 29  1  0  0  0  0
 13 30  1  0  0  0  0
 14 16  1  0  0  0  0
 14 17  1  0  0  0  0
 15 31  1  0  0  0  0
 15 32  1  0  0  0  0
 15 33  1  0  0  0  0
 16 34  1  0  0  0  0
 16 35  1  0  0  0  0
 16 36  1  0  0  0  0
 17 37  1  0  0  0  0
M  END
> <PUBCHEM_COMPOUND_CID>
14633002

> <PUBCHEM_CONFORMER_RMSD>
0.6

> <PUBCHEM_CONFORMER_DIVERSEORDER>
2
7
6
1
4
5
3

> <PUBCHEM_MMFF94_PARTIAL_CHARGES>
20
1 -0.57
10 -0.29
11 -0.29
12 0.49
13 0.14
14 -0.12
15 0.14
16 0.14
17 0.5
2 -0.57
26 0.15
27 0.15
3 0.14
37 0.06
4 0.14
5 -0.28
6 0.28
7 0.2
8 -0.12
9 -0.28

> <PUBCHEM_EFFECTIVE_ROTOR_COUNT>
1.8

> <PUBCHEM_PHARMACOPHORE_FEATURES>
3
1 1 acceptor
1 16 hydrophobe
1 2 acceptor

> <PUBCHEM_HEAVY_ATOM_COUNT>
17

> <PUBCHEM_ATOM_DEF_STEREO_COUNT>
0

> <PUBCHEM_ATOM_UDEF_STEREO_COUNT>
0

> <PUBCHEM_BOND_DEF_STEREO_COUNT>
3

> <PUBCHEM_BOND_UDEF_STEREO_COUNT>
0

> <PUBCHEM_ISOTOPIC_ATOM_COUNT>
0

> <PUBCHEM_COMPONENT_COUNT>
1

> <PUBCHEM_CACTVS_TAUTO_COUNT>
13

> <PUBCHEM_CONFORMER_ID>
00DF482A00000002

> <PUBCHEM_MMFF94_ENERGY>
41.852

> <PUBCHEM_FEATURE_SELFOVERLAP>
15.223

> <PUBCHEM_SHAPE_FINGERPRINT>
121448 382 18115019826825145720
12491281 212 18059301976071279120
13583140 156 16877944936507879312
13764800 53 18334011709550286383
14251745 187 18342731962003084432
14817 1 13006877203161135131
15775835 57 18335134250513148437
16752209 62 17487032506860198077
16945 1 18192436255747842690
17357779 13 18124301960001026471
18186145 218 18335147453680128398
18981168 100 17315386780111029686
19930374 2 15382157935916784707
20510252 161 18262801898859255931
20645476 183 18189605052076972407
21501502 16 18272091574234331790
22802520 49 18202284697251296454
2334 1 18413388752430814266
23402539 116 18265041617404275678
23419403 2 14420407960307769581
23557571 272 18198632227114240310
23559900 14 18272082795869882944
2748010 2 17548117287778307225
353137 74 18409161147201385652
526903 126 18338512057660813820
9981440 41 18119521288102212856

> <PUBCHEM_SHAPE_MULTIPOLES>
338.11
5.62
2.57
1.36
4.06
0.41
-0.31
-1.76
1.81
-0.83
-0.38
-0.73
0.04
-0.32

> <PUBCHEM_SHAPE_SELFOVERLAP>
680.954

> <PUBCHEM_SHAPE_VOLUME>
196.3

> <PUBCHEM_COORDINATE_TYPE>
2
5
10

$$$$
