71520717
  -OEChem-10022411043D

 43 43  0     0  0  0  0  0  0999 V2000
   -0.1155   -0.7290    0.2072 O   0  0  0  0  0  0  0  0  0  0  0  0
    7.8660   -0.2957   -1.3586 O   0  0  0  0  0  0  0  0  0  0  0  0
   -2.3523   -2.1235    0.7007 O   0  0  0  0  0  0  0  0  0  0  0  0
    9.1241   -0.2380    1.0300 O   0  0  0  0  0  0  0  0  0  0  0  0
   -1.3826   -0.1391    0.0354 N   0  0  0  0  0  0  0  0  0  0  0  0
    7.8384    0.2969    0.8731 N   0  0  0  0  0  0  0  0  0  0  0  0
    3.4082    0.5324   -0.3110 C   0  0  0  0  0  0  0  0  0  0  0  0
    4.7836   -0.1256   -0.1573 C   0  0  0  0  0  0  0  0  0  0  0  0
    2.2499   -0.3988    0.0493 C   0  0  0  0  0  0  0  0  0  0  0  0
    5.9264    0.8434   -0.4614 C   0  0  0  0  0  0  0  0  0  0  0  0
    0.8761    0.2314   -0.1338 C   0  0  0  0  0  0  0  0  0  0  0  0
    7.3041    0.2078   -0.3895 C   0  0  0  0  0  0  0  0  0  0  0  0
   -3.7943   -0.3520    0.1550 C   0  0  0  0  0  0  0  0  0  0  0  0
   -5.2243    1.5948    0.1112 C   0  0  0  0  0  0  0  0  0  0  0  0
   -6.1554   -0.5975   -0.2940 C   0  0  0  0  0  0  0  0  0  0  0  0
   -4.8917   -1.1645   -0.1296 C   0  0  0  0  0  0  0  0  0  0  0  0
   -3.9606    1.0277    0.2754 C   0  0  0  0  0  0  0  0  0  0  0  0
   -6.3217    0.7822   -0.1736 C   0  0  0  0  0  0  0  0  0  0  0  0
   -2.4473   -0.9564    0.3301 C   0  0  0  0  0  0  0  0  0  0  0  0
   -5.4023    3.0699    0.2398 C   0  0  0  0  0  0  0  0  0  0  0  0
   -7.3288   -1.4662   -0.5984 C   0  0  0  0  0  0  0  0  0  0  0  0
    3.2880    0.8752   -1.3460 H   0  0  0  0  0  0  0  0  0  0  0  0
    3.3604    1.4240    0.3264 H   0  0  0  0  0  0  0  0  0  0  0  0
    4.8965   -0.5095    0.8641 H   0  0  0  0  0  0  0  0  0  0  0  0
    4.8528   -0.9938   -0.8242 H   0  0  0  0  0  0  0  0  0  0  0  0
    2.3546   -0.7347    1.0889 H   0  0  0  0  0  0  0  0  0  0  0  0
    2.3075   -1.3102   -0.5595 H   0  0  0  0  0  0  0  0  0  0  0  0
    5.8840    1.6995    0.2232 H   0  0  0  0  0  0  0  0  0  0  0  0
    5.8108    1.2509   -1.4734 H   0  0  0  0  0  0  0  0  0  0  0  0
    0.7444    0.5417   -1.1774 H   0  0  0  0  0  0  0  0  0  0  0  0
    0.7786    1.1098    0.5155 H   0  0  0  0  0  0  0  0  0  0  0  0
   -4.7691   -2.2407   -0.2274 H   0  0  0  0  0  0  0  0  0  0  0  0
   -3.1287    1.6809    0.5241 H   0  0  0  0  0  0  0  0  0  0  0  0
   -7.3078    1.2235   -0.2980 H   0  0  0  0  0  0  0  0  0  0  0  0
   -1.4200    0.8091   -0.3214 H   0  0  0  0  0  0  0  0  0  0  0  0
   -4.5256    3.6058   -0.1397 H   0  0  0  0  0  0  0  0  0  0  0  0
   -6.2650    3.4188   -0.3378 H   0  0  0  0  0  0  0  0  0  0  0  0
   -5.5533    3.3398    1.2897 H   0  0  0  0  0  0  0  0  0  0  0  0
   -7.7913   -1.8119    0.3314 H   0  0  0  0  0  0  0  0  0  0  0  0
   -8.0804   -0.9260   -1.1840 H   0  0  0  0  0  0  0  0  0  0  0  0
   -7.0308   -2.3394   -1.1887 H   0  0  0  0  0  0  0  0  0  0  0  0
    7.4546    0.8117    1.6573 H   0  0  0  0  0  0  0  0  0  0  0  0
    8.9020   -1.1245    1.3619 H   0  0  0  0  0  0  0  0  0  0  0  0
  1  5  1  0  0  0  0
  1 11  1  0  0  0  0
  2 12  2  0  0  0  0
  3 19  2  0  0  0  0
  4  6  1  0  0  0  0
  4 43  1  0  0  0  0
  5 19  1  0  0  0  0
  5 35  1  0  0  0  0
  6 12  1  0  0  0  0
  6 42  1  0  0  0  0
  7  8  1  0  0  0  0
  7  9  1  0  0  0  0
  7 22  1  0  0  0  0
  7 23  1  0  0  0  0
  8 10  1  0  0  0  0
  8 24  1  0  0  0  0
  8 25  1  0  0  0  0
  9 11  1  0  0  0  0
  9 26  1  0  0  0  0
  9 27  1  0  0  0  0
 10 12  1  0  0  0  0
 10 28  1  0  0  0  0
 10 29  1  0  0  0  0
 11 30  1  0  0  0  0
 11 31  1  0  0  0  0
 13 16  2  0  0  0  0
 13 17  1  0  0  0  0
 13 19  1  0  0  0  0
 14 17  2  0  0  0  0
 14 18  1  0  0  0  0
 14 20  1  0  0  0  0
 15 16  1  0  0  0  0
 15 18  2  0  0  0  0
 15 21  1  0  0  0  0
 16 32  1  0  0  0  0
 17 33  1  0  0  0  0
 18 34  1  0  0  0  0
 20 36  1  0  0  0  0
 20 37  1  0  0  0  0
 20 38  1  0  0  0  0
 21 39  1  0  0  0  0
 21 40  1  0  0  0  0
 21 41  1  0  0  0  0
M  END
> <PUBCHEM_COMPOUND_CID>
71520717

> <PUBCHEM_CONFORMER_RMSD>
1.4

> <PUBCHEM_CONFORMER_DIVERSEORDER>
1
37
25
21
11
2
28
7
9
36
20
6
24
41
32
40
16
15
5
10
3
30
19
23
12
26
31
18
29
4
35
8
27
33
22
39
17
38
13
34
14

> <PUBCHEM_MMFF94_PARTIAL_CHARGES>
24
1 -0.32
10 0.06
11 0.28
12 0.57
13 0.09
14 -0.14
15 -0.14
16 -0.15
17 -0.15
18 -0.15
19 0.54
2 -0.57
20 0.14
21 0.14
3 -0.57
32 0.15
33 0.15
34 0.15
35 0.37
4 -0.44
42 0.37
43 0.4
5 -0.39
6 -0.39

> <PUBCHEM_EFFECTIVE_ROTOR_COUNT>
10

> <PUBCHEM_PHARMACOPHORE_FEATURES>
6
1 2 acceptor
1 3 acceptor
1 5 donor
1 6 donor
4 7 8 9 10 hydrophobe
6 13 14 15 16 17 18 rings

> <PUBCHEM_HEAVY_ATOM_COUNT>
21

> <PUBCHEM_ATOM_DEF_STEREO_COUNT>
0

> <PUBCHEM_ATOM_UDEF_STEREO_COUNT>
0

> <PUBCHEM_BOND_DEF_STEREO_COUNT>
0

> <PUBCHEM_BOND_UDEF_STEREO_COUNT>
0

> <PUBCHEM_ISOTOPIC_ATOM_COUNT>
0

> <PUBCHEM_COMPONENT_COUNT>
1

> <PUBCHEM_CACTVS_TAUTO_COUNT>
8

> <PUBCHEM_CONFORMER_ID>
044351CD00000001

> <PUBCHEM_MMFF94_ENERGY>
42.4062

> <PUBCHEM_FEATURE_SELFOVERLAP>
30.446

> <PUBCHEM_SHAPE_FINGERPRINT>
10066227 49 17417822682366546870
10087517 78 18334576811419934629
10299344 5 17822009809609131346
10670039 82 18335414656576063993
10730089 173 18412265026062519817
11315181 36 17749676272327669129
11719270 70 18131354090623014094
12082328 90 18202001015009295839
12091667 2 18410577297156889827
125118 31 18410576215337464312
13885169 127 18412826876314143004
13914758 101 18408888413016028536
14123256 10 13830134996770198766
14251764 18 18113898260545689570
14251764 46 18409448103110338430
14729087 3 18343018874461230312
15183329 4 17967531272682411824
15419008 47 17418369186352180232
15461852 350 18272656782829030255
15716309 27 11815903348973269884
1577012 14 18334292024922503833
17780758 139 7853856084058418687
19489759 90 18413673517637303777
195137 175 17894641370286859204
20281389 69 18187363246805548908
21150785 3 12319734778883757584
21315763 28 18410855490409431652
23559900 14 18271520996334733489
28498 318 16950556676296092034
33684 2 18261108591176106751
4073 2 17822861999903782738
4339292 15 17203034301656865455
444735 82 18339922745009222584
5969126 39 14979680957371398808
8209 1 18409448102688377838

> <PUBCHEM_SHAPE_MULTIPOLES>
398.73
27.99
1.81
0.81
53.62
1.02
-0.03
1.85
-1.2
-4.91
0.16
0.98
-0.07
-0.45

> <PUBCHEM_SHAPE_SELFOVERLAP>
797.889

> <PUBCHEM_SHAPE_VOLUME>
236.1

> <PUBCHEM_COORDINATE_TYPE>
2
5
10

$$$$
