56650312
  -OEChem-10022411003D

 46 48  0     0  0  0  0  0  0999 V2000
    9.5389    1.0259   -0.6509 F   0  0  0  0  0  0  0  0  0  0  0  0
    3.4461   -0.9006   -1.6186 O   0  0  0  0  0  0  0  0  0  0  0  0
   -2.6147   -1.7254    0.2383 N   0  0  0  0  0  0  0  0  0  0  0  0
   -2.2906   -1.1807    1.4234 N   0  0  0  0  0  0  0  0  0  0  0  0
    4.1744    0.0780    0.3874 N   0  0  0  0  0  0  0  0  0  0  0  0
    5.8326    1.2826    2.3699 N   0  0  0  0  0  0  0  0  0  0  0  0
   -4.0291   -2.1858   -0.0111 C   0  0  0  0  0  0  0  0  0  0  0  0
   -0.4916   -1.2620    0.0181 C   0  0  0  0  0  0  0  0  0  0  0  0
   -1.5727   -1.7970   -0.6388 C   0  0  0  0  0  0  0  0  0  0  0  0
   -4.9510   -1.0456   -0.3393 C   0  0  0  0  0  0  0  0  0  0  0  0
   -0.9925   -0.8996    1.2829 C   0  0  0  0  0  0  0  0  0  0  0  0
    0.8127   -1.1235   -0.4923 C   0  0  0  0  0  0  0  0  0  0  0  0
    5.5466    0.3278    0.1390 C   0  0  0  0  0  0  0  0  0  0  0  0
   -6.0725   -0.7567    0.3594 C   0  0  0  0  0  0  0  0  0  0  0  0
   -6.9985    0.3268    0.0699 C   0  0  0  0  0  0  0  0  0  0  0  0
    6.3568    0.9170    1.1096 C   0  0  0  0  0  0  0  0  0  0  0  0
    1.9041   -0.5879    0.1607 C   0  0  0  0  0  0  0  0  0  0  0  0
    6.0851   -0.0258   -1.0983 C   0  0  0  0  0  0  0  0  0  0  0  0
    3.2531   -0.4984   -0.4774 C   0  0  0  0  0  0  0  0  0  0  0  0
    7.7054    1.1525    0.8430 C   0  0  0  0  0  0  0  0  0  0  0  0
   -6.5854    1.4079   -0.7088 C   0  0  0  0  0  0  0  0  0  0  0  0
   -8.2995    0.2850    0.5711 C   0  0  0  0  0  0  0  0  0  0  0  0
    7.4338    0.2097   -1.3649 C   0  0  0  0  0  0  0  0  0  0  0  0
    8.2440    0.7989   -0.3942 C   0  0  0  0  0  0  0  0  0  0  0  0
   -7.4734    2.4472   -0.9864 C   0  0  0  0  0  0  0  0  0  0  0  0
   -9.1875    1.3242    0.2935 C   0  0  0  0  0  0  0  0  0  0  0  0
   -8.7745    2.4054   -0.4852 C   0  0  0  0  0  0  0  0  0  0  0  0
   -4.3216   -2.7313    0.8928 H   0  0  0  0  0  0  0  0  0  0  0  0
   -3.9732   -2.8907   -0.8474 H   0  0  0  0  0  0  0  0  0  0  0  0
   -1.6889   -2.2118   -1.6313 H   0  0  0  0  0  0  0  0  0  0  0  0
   -4.6747   -0.4700   -1.2183 H   0  0  0  0  0  0  0  0  0  0  0  0
   -0.4763   -0.4422    2.1154 H   0  0  0  0  0  0  0  0  0  0  0  0
    0.9708   -1.4817   -1.5085 H   0  0  0  0  0  0  0  0  0  0  0  0
   -6.3257   -1.3839    1.2117 H   0  0  0  0  0  0  0  0  0  0  0  0
    3.8412    0.3566    1.3048 H   0  0  0  0  0  0  0  0  0  0  0  0
    1.7997   -0.2171    1.1762 H   0  0  0  0  0  0  0  0  0  0  0  0
    5.5313   -0.4848   -1.9039 H   0  0  0  0  0  0  0  0  0  0  0  0
    8.3486    1.6109    1.5898 H   0  0  0  0  0  0  0  0  0  0  0  0
   -5.5770    1.4936   -1.1027 H   0  0  0  0  0  0  0  0  0  0  0  0
   -8.6398   -0.5499    1.1789 H   0  0  0  0  0  0  0  0  0  0  0  0
    7.8549   -0.0647   -2.3277 H   0  0  0  0  0  0  0  0  0  0  0  0
   -7.1510    3.2916   -1.5887 H   0  0  0  0  0  0  0  0  0  0  0  0
  -10.2006    1.2919    0.6835 H   0  0  0  0  0  0  0  0  0  0  0  0
   -9.4656    3.2150   -0.7004 H   0  0  0  0  0  0  0  0  0  0  0  0
    6.4431    1.7093    3.0550 H   0  0  0  0  0  0  0  0  0  0  0  0
    4.8633    1.1334    2.6058 H   0  0  0  0  0  0  0  0  0  0  0  0
  1 24  1  0  0  0  0
  2 19  2  0  0  0  0
  3  4  1  0  0  0  0
  3  7  1  0  0  0  0
  3  9  1  0  0  0  0
  4 11  2  0  0  0  0
  5 13  1  0  0  0  0
  5 19  1  0  0  0  0
  5 35  1  0  0  0  0
  6 16  1  0  0  0  0
  6 45  1  0  0  0  0
  6 46  1  0  0  0  0
  7 10  1  0  0  0  0
  7 28  1  0  0  0  0
  7 29  1  0  0  0  0
  8  9  2  0  0  0  0
  8 11  1  0  0  0  0
  8 12  1  0  0  0  0
  9 30  1  0  0  0  0
 10 14  2  0  0  0  0
 10 31  1  0  0  0  0
 11 32  1  0  0  0  0
 12 17  2  0  0  0  0
 12 33  1  0  0  0  0
 13 16  2  0  0  0  0
 13 18  1  0  0  0  0
 14 15  1  0  0  0  0
 14 34  1  0  0  0  0
 15 21  2  0  0  0  0
 15 22  1  0  0  0  0
 16 20  1  0  0  0  0
 17 19  1  0  0  0  0
 17 36  1  0  0  0  0
 18 23  2  0  0  0  0
 18 37  1  0  0  0  0
 20 24  2  0  0  0  0
 20 38  1  0  0  0  0
 21 25  1  0  0  0  0
 21 39  1  0  0  0  0
 22 26  2  0  0  0  0
 22 40  1  0  0  0  0
 23 24  1  0  0  0  0
 23 41  1  0  0  0  0
 25 27  2  0  0  0  0
 25 42  1  0  0  0  0
 26 27  1  0  0  0  0
 26 43  1  0  0  0  0
 27 44  1  0  0  0  0
M  END
> <PUBCHEM_COMPOUND_CID>
56650312

> <PUBCHEM_CONFORMER_RMSD>
1

> <PUBCHEM_CONFORMER_DIVERSEORDER>
1
56
35
13
57
58
43
20
16
44
45
29
31
64
37
23
70
27
9
60
68
41
55
36
34
72
18
15
26
59
52
40
66
49
2
63
4
65
42
69
24
50
48
61
21
7
46
38
67
12
62
6
25
10
5
51
47
32
53
3
19
17
8
22
33
28
14
71
39
11
30
54

> <PUBCHEM_MMFF94_PARTIAL_CHARGES>
44
1 -0.19
10 -0.29
11 0.14
12 -0.1
13 0.12
14 -0.18
15 0.03
16 0.1
17 -0.14
18 -0.15
19 0.62
2 -0.57
20 -0.15
21 -0.15
22 -0.15
23 -0.15
24 0.19
25 -0.15
26 -0.15
27 -0.15
3 0.31
30 0.15
31 0.15
32 0.15
33 0.15
34 0.15
35 0.37
36 0.15
37 0.15
38 0.15
39 0.15
4 -0.71
40 0.15
41 0.15
42 0.15
43 0.15
44 0.15
45 0.4
46 0.4
5 -0.55
6 -0.9
7 0.39
8 -0.05
9 -0.3

> <PUBCHEM_EFFECTIVE_ROTOR_COUNT>
7

> <PUBCHEM_PHARMACOPHORE_FEATURES>
8
1 2 acceptor
1 4 acceptor
1 5 donor
1 6 cation
1 6 donor
5 3 4 8 9 11 rings
6 13 16 18 20 23 24 rings
6 15 21 22 25 26 27 rings

> <PUBCHEM_HEAVY_ATOM_COUNT>
27

> <PUBCHEM_ATOM_DEF_STEREO_COUNT>
0

> <PUBCHEM_ATOM_UDEF_STEREO_COUNT>
0

> <PUBCHEM_BOND_DEF_STEREO_COUNT>
2

> <PUBCHEM_BOND_UDEF_STEREO_COUNT>
0

> <PUBCHEM_ISOTOPIC_ATOM_COUNT>
0

> <PUBCHEM_COMPONENT_COUNT>
1

> <PUBCHEM_CACTVS_TAUTO_COUNT>
4

> <PUBCHEM_CONFORMER_ID>
03606A4800000001

> <PUBCHEM_MMFF94_ENERGY>
75.9959

> <PUBCHEM_FEATURE_SELFOVERLAP>
40.599

> <PUBCHEM_SHAPE_FINGERPRINT>
10 15 18040715849306996563
10533779 1 17969214531466942013
10835480 77 17917997182771621935
11135926 11 16271937025669797767
11181472 205 18261394421613425024
11386260 185 16486972938630316576
11409948 35 18338802192547556334
11409948 41 15482404045555070460
125118 31 18335140946942305652
12838862 33 17060331929977012290
13530399 1 17895202155519287324
13726171 33 18045781183998678129
14028597 1 16588014680761483105
14251764 18 16660362610098389755
14344974 52 17988639727837076055
14428016 248 17530972414657911100
14429380 56 16415478277307495568
14729087 3 18411699889960058939
150020 25 17846780719196575833
15183329 4 15482667958320764471
15347590 135 15430033228265463113
155225 1 18409168789008807173
15604295 49 18338795731872237924
15706992 2 18187375320163859073
1577012 14 18409721859925888267
15979999 66 13254793542798798115
1754911 235 16988562398862753713
1818759 1 10447926187947529989
18335252 114 16773797013571278376
18643901 69 11167941364786035267
19302320 297 17676776426487078349
2026 5 9007060167386073233
21095123 293 18040438797413995572
21150785 3 14836126554559189219
21362267 313 18335134286275763184
21424621 283 18260829281010801603
21756936 100 18186519917825540923
21781055 127 17313397673561963238
21792934 111 17846493735195824186
23389318 12 13182734870891940970
23576562 1 17059195103625778913
306946 40 17632003226777941656
3178227 256 14129060318035271362
3633792 109 17346606265566914538
3711267 37 18334588940122904205
4093350 32 18187641376145622706
4339292 15 9871466487837111113
437795 83 17561087956612696505
44802255 64 18131349705651322239
504579 68 15123508116234515279
5385378 56 17385718063146887354
5719381 82 10663815296235628909
5758199 1 17530684303730147395
59567204 34 18409449177116270381
59682541 35 12179845008880994953
5969126 39 14764353708785467275
6081469 158 18131356293792991080
6201320 215 18264198136950886329
636775 72 18407760323003464621
636775 8 9223232965903447888
6673363 416 18202560663273102401
6691757 9 16805318938251319547
9962374 69 12180138617483461819
9995097 26 9943519739035588923
999808 66 10953461834483506219

> <PUBCHEM_SHAPE_MULTIPOLES>
522.58
35.24
2.11
1.31
1.05
0.3
-0.32
26.47
2.07
4.52
0.19
-2.06
0.21
2.04

> <PUBCHEM_SHAPE_SELFOVERLAP>
1120.667

> <PUBCHEM_SHAPE_VOLUME>
288.5

> <PUBCHEM_COORDINATE_TYPE>
2
5
10

$$$$
