67324851
  -OEChem-10022411113D

 52 55  0     0  0  0  0  0  0999 V2000
   -5.8410   -0.6805    1.6929 F   0  0  0  0  0  0  0  0  0  0  0  0
   -4.2589   -1.9269    0.8736 F   0  0  0  0  0  0  0  0  0  0  0  0
   -5.8563   -1.2033   -0.4118 F   0  0  0  0  0  0  0  0  0  0  0  0
    2.6119   -2.4540    1.1555 O   0  0  0  0  0  0  0  0  0  0  0  0
    1.9641    1.1296    1.7579 O   0  0  0  0  0  0  0  0  0  0  0  0
   -4.8978    1.5184    0.0205 O   0  0  0  0  0  0  0  0  0  0  0  0
    3.2922    2.1225    0.1363 N   0  0  0  0  0  0  0  0  0  0  0  0
    2.7592   -1.0381   -0.6018 N   0  0  0  0  0  0  0  0  0  0  0  0
   -2.9094    0.5150    0.2568 N   0  0  0  0  0  0  0  0  0  0  0  0
   -3.9329    2.5020   -0.2315 N   0  0  0  0  0  0  0  0  0  0  0  0
    4.9032    0.2080   -0.0666 C   0  0  0  0  0  0  0  0  0  0  0  0
    4.5464    1.5735    0.5837 C   0  0  0  0  0  0  0  0  0  0  0  0
    3.8247   -0.8470    0.2403 C   0  0  0  0  0  0  0  0  0  0  0  0
    5.1486    0.4330   -1.5788 C   0  0  0  0  0  0  0  0  0  0  0  0
    6.2495   -0.2725    0.5281 C   0  0  0  0  0  0  0  0  0  0  0  0
    3.7392   -1.7047    1.3085 C   0  0  0  0  0  0  0  0  0  0  0  0
    2.0808   -1.9955   -0.0108 C   0  0  0  0  0  0  0  0  0  0  0  0
    2.0877    1.8501    0.7710 C   0  0  0  0  0  0  0  0  0  0  0  0
    0.8797    2.4722    0.1706 C   0  0  0  0  0  0  0  0  0  0  0  0
    0.8581   -2.6294   -0.4187 C   0  0  0  0  0  0  0  0  0  0  0  0
   -0.3681    1.8693    0.3290 C   0  0  0  0  0  0  0  0  0  0  0  0
    0.9938    3.6595   -0.5524 C   0  0  0  0  0  0  0  0  0  0  0  0
   -1.5018    2.4537   -0.2357 C   0  0  0  0  0  0  0  0  0  0  0  0
    0.5144   -3.8789    0.0973 C   0  0  0  0  0  0  0  0  0  0  0  0
    0.0144   -1.9956   -1.3307 C   0  0  0  0  0  0  0  0  0  0  0  0
   -0.1399    4.2440   -1.1171 C   0  0  0  0  0  0  0  0  0  0  0  0
   -1.3877    3.6411   -0.9588 C   0  0  0  0  0  0  0  0  0  0  0  0
   -0.6730   -4.4946   -0.2987 C   0  0  0  0  0  0  0  0  0  0  0  0
   -1.1730   -2.6111   -1.7268 C   0  0  0  0  0  0  0  0  0  0  0  0
   -2.7867    1.8333   -0.0731 C   0  0  0  0  0  0  0  0  0  0  0  0
   -1.5167   -3.8607   -1.2108 C   0  0  0  0  0  0  0  0  0  0  0  0
   -4.2107    0.3799    0.2999 C   0  0  0  0  0  0  0  0  0  0  0  0
   -5.0142   -0.8122    0.6022 C   0  0  0  0  0  0  0  0  0  0  0  0
    5.3178    2.3197    0.3596 H   0  0  0  0  0  0  0  0  0  0  0  0
    4.5046    1.4700    1.6753 H   0  0  0  0  0  0  0  0  0  0  0  0
    5.4569   -0.4997   -2.0656 H   0  0  0  0  0  0  0  0  0  0  0  0
    4.2391    0.7727   -2.0866 H   0  0  0  0  0  0  0  0  0  0  0  0
    5.9306    1.1802   -1.7541 H   0  0  0  0  0  0  0  0  0  0  0  0
    6.5389   -1.2499    0.1237 H   0  0  0  0  0  0  0  0  0  0  0  0
    6.2042   -0.3632    1.6196 H   0  0  0  0  0  0  0  0  0  0  0  0
    7.0564    0.4336    0.2989 H   0  0  0  0  0  0  0  0  0  0  0  0
    3.3155    2.6729   -0.7152 H   0  0  0  0  0  0  0  0  0  0  0  0
    4.3286   -1.9034    2.1910 H   0  0  0  0  0  0  0  0  0  0  0  0
   -0.4484    0.9424    0.8930 H   0  0  0  0  0  0  0  0  0  0  0  0
    1.9399    4.1784   -0.6734 H   0  0  0  0  0  0  0  0  0  0  0  0
    1.1525   -4.4040    0.8037 H   0  0  0  0  0  0  0  0  0  0  0  0
    0.2611   -1.0198   -1.7425 H   0  0  0  0  0  0  0  0  0  0  0  0
   -0.0521    5.1716   -1.6753 H   0  0  0  0  0  0  0  0  0  0  0  0
   -2.2504    4.1197   -1.4157 H   0  0  0  0  0  0  0  0  0  0  0  0
   -0.9404   -5.4681    0.1018 H   0  0  0  0  0  0  0  0  0  0  0  0
   -1.8313   -2.1164   -2.4351 H   0  0  0  0  0  0  0  0  0  0  0  0
   -2.4416   -4.3395   -1.5186 H   0  0  0  0  0  0  0  0  0  0  0  0
  1 33  1  0  0  0  0
  2 33  1  0  0  0  0
  3 33  1  0  0  0  0
  4 16  1  0  0  0  0
  4 17  1  0  0  0  0
  5 18  2  0  0  0  0
  6 10  1  0  0  0  0
  6 32  1  0  0  0  0
  7 12  1  0  0  0  0
  7 18  1  0  0  0  0
  7 42  1  0  0  0  0
  8 13  1  0  0  0  0
  8 17  2  0  0  0  0
  9 30  1  0  0  0  0
  9 32  2  0  0  0  0
 10 30  2  0  0  0  0
 11 12  1  0  0  0  0
 11 13  1  0  0  0  0
 11 14  1  0  0  0  0
 11 15  1  0  0  0  0
 12 34  1  0  0  0  0
 12 35  1  0  0  0  0
 13 16  2  0  0  0  0
 14 36  1  0  0  0  0
 14 37  1  0  0  0  0
 14 38  1  0  0  0  0
 15 39  1  0  0  0  0
 15 40  1  0  0  0  0
 15 41  1  0  0  0  0
 16 43  1  0  0  0  0
 17 20  1  0  0  0  0
 18 19  1  0  0  0  0
 19 21  1  0  0  0  0
 19 22  2  0  0  0  0
 20 24  2  0  0  0  0
 20 25  1  0  0  0  0
 21 23  2  0  0  0  0
 21 44  1  0  0  0  0
 22 26  1  0  0  0  0
 22 45  1  0  0  0  0
 23 27  1  0  0  0  0
 23 30  1  0  0  0  0
 24 28  1  0  0  0  0
 24 46  1  0  0  0  0
 25 29  2  0  0  0  0
 25 47  1  0  0  0  0
 26 27  2  0  0  0  0
 26 48  1  0  0  0  0
 27 49  1  0  0  0  0
 28 31  2  0  0  0  0
 28 50  1  0  0  0  0
 29 31  1  0  0  0  0
 29 51  1  0  0  0  0
 31 52  1  0  0  0  0
 32 33  1  0  0  0  0
M  END
> <PUBCHEM_COMPOUND_CID>
67324851

> <PUBCHEM_CONFORMER_RMSD>
1.2

> <PUBCHEM_CONFORMER_DIVERSEORDER>
1
118
43
39
52
40
63
41
62
108
5
46
86
59
66
90
95
47
72
98
121
106
67
35
105
2
102
120
19
69
10
101
33
79
81
12
49
64
14
48
91
27
84
87
80
110
6
42
107
85
68
9
92
123
111
83
55
93
74
56
54
34
4
32
104
36
22
18
70
16
65
7
94
26
51
44
116
119
25
117
115
13
77
100
37
76
11
97
23
113
122
78
8
60
88
31
57
20
109
53
82
75
99
112
3
50
89
61
24
30
58
21
114
17
45
73
96
38
28
103
15
71
29

> <PUBCHEM_MMFF94_PARTIAL_CHARGES>
42
1 -0.34
10 -0.41
11 0.18
12 0.3
13 0.05
16 -0.01
17 0.43
18 0.54
19 0.09
2 -0.34
20 0.05
21 -0.15
22 -0.15
23 0.05
24 -0.15
25 -0.15
26 -0.15
27 -0.15
28 -0.15
29 -0.15
3 -0.34
30 0.46
31 -0.15
32 0.3
33 1.2
4 -0.28
42 0.37
43 0.15
44 0.15
45 0.15
46 0.15
47 0.15
48 0.15
49 0.15
5 -0.57
50 0.15
51 0.15
52 0.15
6 -0.02
7 -0.73
8 -0.57
9 -0.57

> <PUBCHEM_EFFECTIVE_ROTOR_COUNT>
8

> <PUBCHEM_PHARMACOPHORE_FEATURES>
8
1 5 acceptor
1 7 donor
3 11 14 15 hydrophobe
3 9 10 30 cation
5 4 8 13 16 17 rings
5 6 9 10 30 32 rings
6 19 21 22 23 26 27 rings
6 20 24 25 28 29 31 rings

> <PUBCHEM_HEAVY_ATOM_COUNT>
33

> <PUBCHEM_ATOM_DEF_STEREO_COUNT>
0

> <PUBCHEM_ATOM_UDEF_STEREO_COUNT>
0

> <PUBCHEM_BOND_DEF_STEREO_COUNT>
0

> <PUBCHEM_BOND_UDEF_STEREO_COUNT>
0

> <PUBCHEM_ISOTOPIC_ATOM_COUNT>
0

> <PUBCHEM_COMPONENT_COUNT>
1

> <PUBCHEM_CACTVS_TAUTO_COUNT>
2

> <PUBCHEM_CONFORMER_ID>
04034BB300000001

> <PUBCHEM_MMFF94_ENERGY>
62.0948

> <PUBCHEM_FEATURE_SELFOVERLAP>
40.597

> <PUBCHEM_SHAPE_FINGERPRINT>
10190206 1 17109887189471609396
10675989 125 16755489337335848535
10864689 126 18197785405470654652
1100329 8 18267022953994052278
11014199 57 17835233828776747646
11479125 193 15939238147083019004
11513181 2 17988640731651999879
13383661 66 17915764006231434350
13402501 40 18410857642066513433
1361 2 18410852187938069401
14117953 113 18411981386696313389
14790565 3 18341052938970224684
14840074 17 18340774818467941159
14866123 147 18341323492019220558
15320467 1 18410291428022758747
15927050 60 17834685163937553980
17627616 140 17687470478441686197
19301679 30 18262254308869272953
19319366 153 17968094252975443714
19591789 44 18340484478578530812
20764821 26 18265328602233345870
21133410 62 18115568436273721199
21133410 90 16986880279174071675
21796203 349 18047225034968072097
22113638 7 18338234976298211333
23559900 14 17258487852068895620
3052486 1 18337380665060057096
338550 245 18265616674306190373
3493558 16 14929053068534552310
392239 28 18413393133429643255
437795 70 18128278820665535678
4403749 210 18048009919626376680
463206 1 18268711795306702921
5047190 2 18053943141704202199
5309563 4 18409449180894409325
6433294 58 17978226054460349873
9543594 6 18268989967358454969
9896288 288 17697595490749868920
9961470 85 17838885281517868299

> <PUBCHEM_SHAPE_MULTIPOLES>
619.77
11.25
6.09
1.28
3.01
1.35
-0.08
0.05
2.9
2.11
-1.93
-0.18
0.32
-0.08

> <PUBCHEM_SHAPE_SELFOVERLAP>
1358.609

> <PUBCHEM_SHAPE_VOLUME>
338.9

> <PUBCHEM_COORDINATE_TYPE>
2
5
10

$$$$
