53344908
  -OEChem-10022411033D

 57 61  0     0  0  0  0  0  0999 V2000
    4.4126    0.4957    1.0284 S   0  0  0  0  0  0  0  0  0  0  0  0
   -3.1288    2.2151   -2.4231 F   0  0  0  0  0  0  0  0  0  0  0  0
   -4.7507    1.1693   -3.4247 F   0  0  0  0  0  0  0  0  0  0  0  0
   -5.1599    2.3638   -1.6615 F   0  0  0  0  0  0  0  0  0  0  0  0
    4.3211    0.7976   -3.6153 O   0  0  0  0  0  0  0  0  0  0  0  0
    2.1149   -2.9531    1.7678 O   0  0  0  0  0  0  0  0  0  0  0  0
   -5.0787   -0.4865   -1.0430 O   0  0  0  0  0  0  0  0  0  0  0  0
    1.7097   -2.2878   -0.4184 N   0  0  0  0  0  0  0  0  0  0  0  0
    1.9886    0.7636    0.1713 N   0  0  0  0  0  0  0  0  0  0  0  0
   -2.8849   -0.1149   -0.7874 N   0  0  0  0  0  0  0  0  0  0  0  0
   -4.6006   -1.5217   -0.2297 N   0  0  0  0  0  0  0  0  0  0  0  0
    3.4060   -0.7476   -1.2834 C   0  0  0  0  0  0  0  0  0  0  0  0
    4.8716   -0.7369   -1.8074 C   0  0  0  0  0  0  0  0  0  0  0  0
    2.5163   -0.3867   -2.5080 C   0  0  0  0  0  0  0  0  0  0  0  0
    3.0753   -2.1869   -0.8273 C   0  0  0  0  0  0  0  0  0  0  0  0
    5.2232    0.5595   -2.5371 C   0  0  0  0  0  0  0  0  0  0  0  0
    2.9697    0.9093   -3.1745 C   0  0  0  0  0  0  0  0  0  0  0  0
    3.1401    0.1810   -0.0790 C   0  0  0  0  0  0  0  0  0  0  0  0
    2.1107    1.5177    1.3221 C   0  0  0  0  0  0  0  0  0  0  0  0
    3.3495    1.4967    1.9278 C   0  0  0  0  0  0  0  0  0  0  0  0
    1.3287   -2.6691    0.8678 C   0  0  0  0  0  0  0  0  0  0  0  0
    1.0099    2.2742    1.8456 C   0  0  0  0  0  0  0  0  0  0  0  0
   -0.1317   -2.7511    1.1272 C   0  0  0  0  0  0  0  0  0  0  0  0
    1.2484    3.4501    2.5569 C   0  0  0  0  0  0  0  0  0  0  0  0
   -0.2982    1.8342    1.6440 C   0  0  0  0  0  0  0  0  0  0  0  0
   -1.0170   -1.9651    0.3897 C   0  0  0  0  0  0  0  0  0  0  0  0
   -0.6174   -3.6143    2.1093 C   0  0  0  0  0  0  0  0  0  0  0  0
   -2.3881   -2.0421    0.6344 C   0  0  0  0  0  0  0  0  0  0  0  0
   -1.9885   -3.6914    2.3540 C   0  0  0  0  0  0  0  0  0  0  0  0
    0.1787    4.1862    3.0665 C   0  0  0  0  0  0  0  0  0  0  0  0
   -1.3680    2.5701    2.1536 C   0  0  0  0  0  0  0  0  0  0  0  0
   -2.8739   -2.9054    1.6166 C   0  0  0  0  0  0  0  0  0  0  0  0
   -1.1295    3.7462    2.8649 C   0  0  0  0  0  0  0  0  0  0  0  0
   -3.3001   -1.2330   -0.1244 C   0  0  0  0  0  0  0  0  0  0  0  0
   -4.0048    0.2963   -1.3261 C   0  0  0  0  0  0  0  0  0  0  0  0
   -4.2543    1.4672   -2.1776 C   0  0  0  0  0  0  0  0  0  0  0  0
    5.6039   -0.9383   -1.0185 H   0  0  0  0  0  0  0  0  0  0  0  0
    4.9822   -1.5564   -2.5322 H   0  0  0  0  0  0  0  0  0  0  0  0
    2.5774   -1.1949   -3.2493 H   0  0  0  0  0  0  0  0  0  0  0  0
    1.4619   -0.2841   -2.2265 H   0  0  0  0  0  0  0  0  0  0  0  0
    3.7400   -2.5046   -0.0155 H   0  0  0  0  0  0  0  0  0  0  0  0
    3.2109   -2.8987   -1.6502 H   0  0  0  0  0  0  0  0  0  0  0  0
    6.2295    0.4807   -2.9611 H   0  0  0  0  0  0  0  0  0  0  0  0
    5.2202    1.4243   -1.8651 H   0  0  0  0  0  0  0  0  0  0  0  0
    2.8708    1.7722   -2.5062 H   0  0  0  0  0  0  0  0  0  0  0  0
    2.3509    1.1058   -4.0560 H   0  0  0  0  0  0  0  0  0  0  0  0
    1.0049   -2.1833   -1.1403 H   0  0  0  0  0  0  0  0  0  0  0  0
    3.6928    1.9839    2.8299 H   0  0  0  0  0  0  0  0  0  0  0  0
   -0.6488   -1.2707   -0.3609 H   0  0  0  0  0  0  0  0  0  0  0  0
    2.2518    3.8352    2.7194 H   0  0  0  0  0  0  0  0  0  0  0  0
   -0.5090    0.9216    1.0945 H   0  0  0  0  0  0  0  0  0  0  0  0
    0.0557   -4.2378    2.6918 H   0  0  0  0  0  0  0  0  0  0  0  0
   -2.3664   -4.3631    3.1193 H   0  0  0  0  0  0  0  0  0  0  0  0
    0.3637    5.1041    3.6168 H   0  0  0  0  0  0  0  0  0  0  0  0
   -2.3865    2.2273    1.9960 H   0  0  0  0  0  0  0  0  0  0  0  0
   -3.9357   -2.9846    1.8365 H   0  0  0  0  0  0  0  0  0  0  0  0
   -1.9625    4.3197    3.2608 H   0  0  0  0  0  0  0  0  0  0  0  0
  1 18  1  0  0  0  0
  1 20  1  0  0  0  0
  2 36  1  0  0  0  0
  3 36  1  0  0  0  0
  4 36  1  0  0  0  0
  5 16  1  0  0  0  0
  5 17  1  0  0  0  0
  6 21  2  0  0  0  0
  7 11  1  0  0  0  0
  7 35  1  0  0  0  0
  8 15  1  0  0  0  0
  8 21  1  0  0  0  0
  8 47  1  0  0  0  0
  9 18  2  0  0  0  0
  9 19  1  0  0  0  0
 10 34  1  0  0  0  0
 10 35  2  0  0  0  0
 11 34  2  0  0  0  0
 12 13  1  0  0  0  0
 12 14  1  0  0  0  0
 12 15  1  0  0  0  0
 12 18  1  0  0  0  0
 13 16  1  0  0  0  0
 13 37  1  0  0  0  0
 13 38  1  0  0  0  0
 14 17  1  0  0  0  0
 14 39  1  0  0  0  0
 14 40  1  0  0  0  0
 15 41  1  0  0  0  0
 15 42  1  0  0  0  0
 16 43  1  0  0  0  0
 16 44  1  0  0  0  0
 17 45  1  0  0  0  0
 17 46  1  0  0  0  0
 19 20  2  0  0  0  0
 19 22  1  0  0  0  0
 20 48  1  0  0  0  0
 21 23  1  0  0  0  0
 22 24  2  0  0  0  0
 22 25  1  0  0  0  0
 23 26  1  0  0  0  0
 23 27  2  0  0  0  0
 24 30  1  0  0  0  0
 24 50  1  0  0  0  0
 25 31  2  0  0  0  0
 25 51  1  0  0  0  0
 26 28  2  0  0  0  0
 26 49  1  0  0  0  0
 27 29  1  0  0  0  0
 27 52  1  0  0  0  0
 28 32  1  0  0  0  0
 28 34  1  0  0  0  0
 29 32  2  0  0  0  0
 29 53  1  0  0  0  0
 30 33  2  0  0  0  0
 30 54  1  0  0  0  0
 31 33  1  0  0  0  0
 31 55  1  0  0  0  0
 32 56  1  0  0  0  0
 33 57  1  0  0  0  0
 35 36  1  0  0  0  0
M  END
> <PUBCHEM_COMPOUND_CID>
53344908

> <PUBCHEM_CONFORMER_RMSD>
1.2

> <PUBCHEM_CONFORMER_DIVERSEORDER>
1
56
83
74
39
122
80
108
127
57
49
112
147
125
94
116
138
25
101
52
78
79
11
18
113
155
103
134
170
175
114
28
54
131
72
176
75
93
70
177
139
111
109
29
173
123
51
117
68
38
149
124
45
104
89
41
178
133
84
140
115
110
6
97
23
60
163
183
166
120
157
128
154
182
162
82
3
48
37
5
159
142
145
186
174
180
35
146
62
85
168
100
169
59
2
64
31
58
130
132
96
106
188
184
13
141
73
129
136
165
17
91
36
160
148
81
144
152
105
118
14
150
95
20
61
30
66
86
158
43
16
172
47
185
71
33
156
92
135
24
102
63
119
42
55
87
181
90
98
32
15
40
137
53
167
69
171
44
187
22
67
126
10
9
46
164
99
143
50
76
26
88
19
151
65
21
27
153
34
179
7
4
121
12
161
189
107
8
77

> <PUBCHEM_MMFF94_PARTIAL_CHARGES>
45
1 -0.08
10 -0.57
11 -0.41
12 0.18
15 0.3
16 0.28
17 0.28
18 0.2
19 0.17
2 -0.34
20 -0.11
21 0.54
22 0.05
23 0.09
24 -0.15
25 -0.15
26 -0.15
27 -0.15
28 0.05
29 -0.15
3 -0.34
30 -0.15
31 -0.15
32 -0.15
33 -0.15
34 0.46
35 0.3
36 1.2
4 -0.34
47 0.37
48 0.15
49 0.15
5 -0.56
50 0.15
51 0.15
52 0.15
53 0.15
54 0.15
55 0.15
56 0.15
57 0.15
6 -0.57
7 -0.02
8 -0.73
9 -0.57

> <PUBCHEM_EFFECTIVE_ROTOR_COUNT>
9.2

> <PUBCHEM_PHARMACOPHORE_FEATURES>
10
1 5 acceptor
1 6 acceptor
1 8 donor
1 9 acceptor
3 10 11 34 cation
5 1 9 18 19 20 rings
5 7 10 11 34 35 rings
6 22 24 25 30 31 33 rings
6 23 26 27 28 29 32 rings
6 5 12 13 14 16 17 rings

> <PUBCHEM_HEAVY_ATOM_COUNT>
36

> <PUBCHEM_ATOM_DEF_STEREO_COUNT>
0

> <PUBCHEM_ATOM_UDEF_STEREO_COUNT>
0

> <PUBCHEM_BOND_DEF_STEREO_COUNT>
0

> <PUBCHEM_BOND_UDEF_STEREO_COUNT>
0

> <PUBCHEM_ISOTOPIC_ATOM_COUNT>
0

> <PUBCHEM_COMPONENT_COUNT>
1

> <PUBCHEM_CACTVS_TAUTO_COUNT>
2

> <PUBCHEM_CONFORMER_ID>
032DFA8C00000001

> <PUBCHEM_MMFF94_ENERGY>
76.4932

> <PUBCHEM_FEATURE_SELFOVERLAP>
50.748

> <PUBCHEM_SHAPE_FINGERPRINT>
10675989 125 18122885565438634633
12107183 9 17240471504103762418
12655364 74 15149477593145453662
12788726 201 17985006819972877673
13165054 411 17904780108377466900
13402501 40 18196079169709273169
13617811 41 17821997741099079591
13642711 20 18127950048891664975
13726171 33 17606142781215749365
13947920 24 18044397125690104748
14040222 75 18128795591194134320
14114206 34 18198923442834256248
14347329 18 17967818266491936758
14537116 161 17986094237944075717
14856354 85 15882337505454857560
14932702 115 18261121806331463157
15264996 19 18054536641881475241
15351339 4 18196071284555792233
15419008 47 18047772652083659099
15968369 153 17774726355348673441
16067690 210 17773314526473789489
161222 10 16906364846342020704
17357779 13 17701288969087130218
17974551 9 17610580427578375018
19319366 153 17618818788805455552
20764821 26 18270413693435634610
21133410 62 18047769109315791545
21315764 21 17678735622862880027
21987440 362 17611979946798405913
23536364 44 18342742870887557369
25019877 29 14315993079062951158
3298306 158 18122311762387010827
437795 70 17631473184457902785
469060 322 17099786890615828451
5081480 168 17413063063584754754
508706 21 18189890005946232843
513532 50 17344029023317291155
5895379 119 17604146047115196094
59025328 239 16845562141104835889
7808743 9 17749398116786373735

> <PUBCHEM_SHAPE_MULTIPOLES>
685.36
9.85
5.21
4.06
2
4.43
3
-1.63
10.15
1.72
-6.27
0.91
0.68
3.54

> <PUBCHEM_SHAPE_SELFOVERLAP>
1492.132

> <PUBCHEM_SHAPE_VOLUME>
377.2

> <PUBCHEM_COORDINATE_TYPE>
2
5
10

$$$$
