11117927
  -OEChem-09222403253D

 37 37  0     1  0  0  0  0  0999 V2000
    2.7437    1.5320    1.8114 O   0  0  0  0  0  0  0  0  0  0  0  0
   -2.2396   -1.0585   -1.3144 O   0  0  0  0  0  0  0  0  0  0  0  0
    0.1372   -2.2245    0.1081 C   0  0  1  0  0  0  0  0  0  0  0  0
   -1.2048   -1.7961    0.7270 C   0  0  0  0  0  0  0  0  0  0  0  0
    1.0703   -1.0466   -0.1234 C   0  0  0  0  0  0  0  0  0  0  0  0
    0.8048   -3.2912    0.9819 C   0  0  0  0  0  0  0  0  0  0  0  0
    1.4797   -0.2948    0.9599 C   0  0  0  0  0  0  0  0  0  0  0  0
    1.4814   -0.7631   -1.4104 C   0  0  0  0  0  0  0  0  0  0  0  0
   -1.9293   -0.7956   -0.1553 C   0  0  0  0  0  0  0  0  0  0  0  0
    2.3359    0.7857    0.7469 C   0  0  0  0  0  0  0  0  0  0  0  0
    2.7648    1.0916   -0.5447 C   0  0  0  0  0  0  0  0  0  0  0  0
    2.3375    0.3172   -1.6234 C   0  0  0  0  0  0  0  0  0  0  0  0
   -2.2342    0.5267    0.4563 C   0  0  0  0  0  0  0  0  0  0  0  0
    3.6803    2.2449   -0.7914 C   0  0  0  0  0  0  0  0  0  0  0  0
   -3.3110    1.2722    0.1537 C   0  0  0  0  0  0  0  0  0  0  0  0
   -3.5155    2.6030    0.8287 C   0  0  0  0  0  0  0  0  0  0  0  0
   -4.4013    0.8971   -0.8109 C   0  0  0  0  0  0  0  0  0  0  0  0
   -0.0778   -2.6954   -0.8611 H   0  0  0  0  0  0  0  0  0  0  0  0
   -1.0677   -1.3806    1.7321 H   0  0  0  0  0  0  0  0  0  0  0  0
   -1.8670   -2.6633    0.8414 H   0  0  0  0  0  0  0  0  0  0  0  0
    0.9975   -2.9332    1.9991 H   0  0  0  0  0  0  0  0  0  0  0  0
    0.1655   -4.1775    1.0599 H   0  0  0  0  0  0  0  0  0  0  0  0
    1.7619   -3.6074    0.5521 H   0  0  0  0  0  0  0  0  0  0  0  0
    1.1484   -0.5291    1.9672 H   0  0  0  0  0  0  0  0  0  0  0  0
    1.1549   -1.3582   -2.2578 H   0  0  0  0  0  0  0  0  0  0  0  0
    2.6619    0.5424   -2.6359 H   0  0  0  0  0  0  0  0  0  0  0  0
   -1.5302    0.8672    1.2104 H   0  0  0  0  0  0  0  0  0  0  0  0
    3.2098    3.1794   -0.4683 H   0  0  0  0  0  0  0  0  0  0  0  0
    4.6199    2.1083   -0.2459 H   0  0  0  0  0  0  0  0  0  0  0  0
    3.9285    2.3508   -1.8530 H   0  0  0  0  0  0  0  0  0  0  0  0
   -3.5816    3.3996    0.0802 H   0  0  0  0  0  0  0  0  0  0  0  0
   -4.4417    2.5956    1.4126 H   0  0  0  0  0  0  0  0  0  0  0  0
   -2.6958    2.8561    1.5095 H   0  0  0  0  0  0  0  0  0  0  0  0
   -4.2746    1.4391   -1.7532 H   0  0  0  0  0  0  0  0  0  0  0  0
   -5.3805    1.1605   -0.3952 H   0  0  0  0  0  0  0  0  0  0  0  0
   -4.4438   -0.1733   -1.0239 H   0  0  0  0  0  0  0  0  0  0  0  0
    2.3456    1.1729    2.6228 H   0  0  0  0  0  0  0  0  0  0  0  0
  1 10  1  0  0  0  0
  1 37  1  0  0  0  0
  2  9  2  0  0  0  0
  3  4  1  0  0  0  0
  3  5  1  0  0  0  0
  3  6  1  0  0  0  0
  3 18  1  0  0  0  0
  4  9  1  0  0  0  0
  4 19  1  0  0  0  0
  4 20  1  0  0  0  0
  5  7  2  0  0  0  0
  5  8  1  0  0  0  0
  6 21  1  0  0  0  0
  6 22  1  0  0  0  0
  6 23  1  0  0  0  0
  7 10  1  0  0  0  0
  7 24  1  0  0  0  0
  8 12  2  0  0  0  0
  8 25  1  0  0  0  0
  9 13  1  0  0  0  0
 10 11  2  0  0  0  0
 11 12  1  0  0  0  0
 11 14  1  0  0  0  0
 12 26  1  0  0  0  0
 13 15  2  0  0  0  0
 13 27  1  0  0  0  0
 14 28  1  0  0  0  0
 14 29  1  0  0  0  0
 14 30  1  0  0  0  0
 15 16  1  0  0  0  0
 15 17  1  0  0  0  0
 16 31  1  0  0  0  0
 16 32  1  0  0  0  0
 16 33  1  0  0  0  0
 17 34  1  0  0  0  0
 17 35  1  0  0  0  0
 17 36  1  0  0  0  0
M  END
> <PUBCHEM_COMPOUND_CID>
11117927

> <PUBCHEM_CONFORMER_RMSD>
0.6

> <PUBCHEM_CONFORMER_DIVERSEORDER>
3
35
80
106
132
77
130
10
123
141
59
23
107
71
138
61
98
56
114
72
43
9
101
111
60
96
31
54
125
142
6
93
24
121
75
76
42
143
45
1
129
33
108
62
105
34
133
79
28
112
48
102
55
78
2
131
122
32
100
124
117
27
57
126
19
113
46
97
139
109
66
4
99
26
95
87
89
115
29
137
40
64
69
94
20
120
127
25
47
88
5
39
145
81
14
83
110
63
116
70
22
38
13
58
82
140
136
51
52
84
68
103
90
7
50
53
118
144
30
41
128
104
119
49
8
21
134
91
44
92
135
73
37
74
11
65
12
67
85
15
16
17
86
36
18

> <PUBCHEM_MMFF94_PARTIAL_CHARGES>
21
1 -0.53
10 0.08
11 -0.14
12 -0.15
13 -0.14
14 0.14
15 -0.28
16 0.14
17 0.14
2 -0.57
24 0.15
25 0.15
26 0.15
27 0.15
3 0.14
37 0.45
4 0.06
5 -0.14
7 -0.15
8 -0.15
9 0.49

> <PUBCHEM_EFFECTIVE_ROTOR_COUNT>
4

> <PUBCHEM_PHARMACOPHORE_FEATURES>
5
1 1 donor
1 2 acceptor
1 6 hydrophobe
3 15 16 17 hydrophobe
6 5 7 8 10 11 12 rings

> <PUBCHEM_HEAVY_ATOM_COUNT>
17

> <PUBCHEM_ATOM_DEF_STEREO_COUNT>
1

> <PUBCHEM_ATOM_UDEF_STEREO_COUNT>
0

> <PUBCHEM_BOND_DEF_STEREO_COUNT>
0

> <PUBCHEM_BOND_UDEF_STEREO_COUNT>
0

> <PUBCHEM_ISOTOPIC_ATOM_COUNT>
0

> <PUBCHEM_COMPONENT_COUNT>
1

> <PUBCHEM_CACTVS_TAUTO_COUNT>
85

> <PUBCHEM_CONFORMER_ID>
00A9A56700000003

> <PUBCHEM_MMFF94_ENERGY>
40.2945

> <PUBCHEM_FEATURE_SELFOVERLAP>
25.372

> <PUBCHEM_SHAPE_FINGERPRINT>
10382601 240 17822860766725623544
10498660 4 18410295834949354957
11221954 11 17841985882269585592
11471102 22 14418680545735701158
11640471 11 17605267574397022116
11725454 13 16914504900764057010
12491281 212 17969509401638454420
12788726 201 17829325040114254675
128993 33 18269848514484376193
13132413 78 17905605506622705546
13134695 92 17611740107382114775
13294875 104 18340765932212585722
13464514 151 18270132222917557222
13618510 140 18409452475012824197
13764800 53 18261405493585589675
13839132 238 18338806726908718974
13965767 371 17676481731163102532
14123255 52 18334582343015681565
14251732 17 18060125549615762448
14957384 54 17895748616523188828
15775835 57 18411138017594997125
16945 1 17979070810445998098
17357990 137 17895197744138629380
1741750 31 18262523713948280608
18981168 100 18262257559109599307
20510252 161 18119820363132429915
20671657 1 18263929834685981439
21041028 32 17396420511652028878
21524375 3 18411979148285388439
21713013 43 15482665819036953589
2255824 54 18120093884051494715
23557571 272 17978519954814748110
25 1 18200614526251126050
2637199 183 18056502568217582121
2803657 2 17412198555108108704
305870 269 18334012787402597826
3797600 57 16302372670871644333
474 4 18334010571362737061
49207404 50 17970089793622909457
5262128 65 16845302591994050689
549884 4 17988368061468371657
568465 68 13407342053915613380
6333272 397 18334862731666073613
6442390 28 18192178029677499811
7364860 26 18196649601243133059
7808743 9 18264219164962977060
81228 2 17763198228976530267
84936 182 18341611464916881713

> <PUBCHEM_SHAPE_MULTIPOLES>
338.11
6.71
3.06
1.43
4.84
1.22
-0.05
-6.3
-0.76
-0.43
0.86
-0.68
-0.19
-0.55

> <PUBCHEM_SHAPE_SELFOVERLAP>
690.224

> <PUBCHEM_SHAPE_VOLUME>
197.1

> <PUBCHEM_COORDINATE_TYPE>
2
5
10

$$$$
